<?xml version="1.0" encoding="UTF-8"?>
<routes xmlns:xsi="http://www.w3.org/2001/XMLSchema-instance" xsi:noNamespaceSchemaLocation="http://sumo.dlr.de/xsd/routes_file.xsd">
    <vehicle id="19" depart="1.52">
        <route edges="145868728 145876496 611356040 145876499 158470844#1-AddedOnRampEdge 158470844#1 145852821 145852815 145852815-AddedOffRampEdge 1066957350 145852800#1"/>
    </vehicle>
    <vehicle id="39" depart="2.63">
        <route edges="145868728 145876496 611356040 145876499 158470844#1-AddedOnRampEdge 158470844#1 145852821 145852815 145852815-AddedOffRampEdge 1066957350 145852800#1"/>
    </vehicle>
    <vehicle id="43" depart="2.81">
        <route edges="145868728 145876496 611356040 145876499 158470844#1-AddedOnRampEdge 158470844#1 145852821 145852815 145852815-AddedOffRampEdge 1066957350 145852800#1"/>
    </vehicle>
    <vehicle id="100" depart="3.44">
        <route edges="145868728 145876496 611356040 145876499 158470844#1-AddedOnRampEdge 158470844#1 145852821 145852815 145852815-AddedOffRampEdge 1066957350 145852800#1"/>
    </vehicle>
    <vehicle id="10" depart="5.55">
        <route edges="145868728 145876496 611356040 145876499 158470844#1-AddedOnRampEdge 158470844#1 145852821 145852815 145852815-AddedOffRampEdge 1066957350 145852800#1"/>
    </vehicle>
    <vehicle id="16" depart="6.54">
        <route edges="145868728 145876496 611356040 145876499 158470844#1-AddedOnRampEdge 158470844#1 145852821 145852815 145852815-AddedOffRampEdge 1066957350 145852800#1"/>
    </vehicle>
    <vehicle id="65" depart="8.13">
        <route edges="145868728 145876496 611356040 145876499 158470844#1-AddedOnRampEdge 158470844#1 145852821 145852815 145852815-AddedOffRampEdge 1066957350 145852800#1"/>
    </vehicle>
    <vehicle id="17" depart="8.29">
        <route edges="145868728 145876496 611356040 145876499 158470844#1-AddedOnRampEdge 158470844#1 145852821 145852815 145852815-AddedOffRampEdge 1066957350 145852800#1"/>
    </vehicle>
    <vehicle id="23" depart="8.75">
        <route edges="145868728 145876496 611356040 145876499 158470844#1-AddedOnRampEdge 158470844#1 145852821 145852815 145852815-AddedOffRampEdge 1066957350 145852800#1"/>
    </vehicle>
    <vehicle id="77" depart="11.93">
        <route edges="145868728 145876496 611356040 145876499 158470844#1-AddedOnRampEdge 158470844#1 145852821 145852815 145852815-AddedOffRampEdge 1066957350 145852800#1"/>
    </vehicle>
    <vehicle id="22" depart="12.38">
        <route edges="145868728 145876496 611356040 145876499 158470844#1-AddedOnRampEdge 158470844#1 145852821 145852815 145852815-AddedOffRampEdge 1066957350 145852800#1"/>
    </vehicle>
    <vehicle id="18" depart="14.32">
        <route edges="145868728 145876496 611356040 145876499 158470844#1-AddedOnRampEdge 158470844#1 145852821 145852815 145852815-AddedOffRampEdge 1066957350 145852800#1"/>
    </vehicle>
    <vehicle id="97" depart="14.83">
        <route edges="145868728 145876496 611356040 145876499 158470844#1-AddedOnRampEdge 158470844#1 145852821 145852815 145852815-AddedOffRampEdge 1066957350 145852800#1"/>
    </vehicle>
    <vehicle id="2" depart="14.89">
        <route edges="145868728 145876496 611356040 145876499 158470844#1-AddedOnRampEdge 158470844#1 145852821 145852815 145852815-AddedOffRampEdge 1066957350 145852800#1"/>
    </vehicle>
    <vehicle id="57" depart="16.97">
        <route edges="145868728 145876496 611356040 145876499 158470844#1-AddedOnRampEdge 158470844#1 145852821 145852815 145852815-AddedOffRampEdge 1066957350 145852800#1"/>
    </vehicle>
    <vehicle id="60" depart="17.3">
        <route edges="145868728 145876496 611356040 145876499 158470844#1-AddedOnRampEdge 158470844#1 145852821 145852815 145852815-AddedOffRampEdge 1066957350 145852800#1"/>
    </vehicle>
    <vehicle id="51" depart="20.11">
        <route edges="145868728 145876496 611356040 145876499 158470844#1-AddedOnRampEdge 158470844#1 145852821 145852815 145852815-AddedOffRampEdge 1066957350 145852800#1"/>
    </vehicle>
    <vehicle id="93" depart="20.4">
        <route edges="145868728 145876496 611356040 145876499 158470844#1-AddedOnRampEdge 158470844#1 145852821 145852815 145852815-AddedOffRampEdge 1066957350 145852800#1"/>
    </vehicle>
    <vehicle id="80" depart="20.8">
        <route edges="145868728 145876496 611356040 145876499 158470844#1-AddedOnRampEdge 158470844#1 145852821 145852815 145852815-AddedOffRampEdge 1066957350 145852800#1"/>
    </vehicle>
    <vehicle id="84" depart="22.12">
        <route edges="145868728 145876496 611356040 145876499 158470844#1-AddedOnRampEdge 158470844#1 145852821 145852815 145852815-AddedOffRampEdge 1066957350 145852800#1"/>
    </vehicle>
    <vehicle id="32" depart="23.49">
        <route edges="145868728 145876496 611356040 145876499 158470844#1-AddedOnRampEdge 158470844#1 145852821 145852815 145852815-AddedOffRampEdge 1066957350 145852800#1"/>
    </vehicle>
    <vehicle id="90" depart="25.1">
        <route edges="145868728 145876496 611356040 145876499 158470844#1-AddedOnRampEdge 158470844#1 145852821 145852815 145852815-AddedOffRampEdge 1066957350 145852800#1"/>
    </vehicle>
    <vehicle id="33" depart="28.27">
        <route edges="145868728 145876496 611356040 145876499 158470844#1-AddedOnRampEdge 158470844#1 145852821 145852815 145852815-AddedOffRampEdge 1066957350 145852800#1"/>
    </vehicle>
    <vehicle id="92" depart="28.35">
        <route edges="145868728 145876496 611356040 145876499 158470844#1-AddedOnRampEdge 158470844#1 145852821 145852815 145852815-AddedOffRampEdge 1066957350 145852800#1"/>
    </vehicle>
    <vehicle id="63" depart="29.24">
        <route edges="145868728 145876496 611356040 145876499 158470844#1-AddedOnRampEdge 158470844#1 145852821 145852815 145852815-AddedOffRampEdge 1066957350 145852800#1"/>
    </vehicle>
    <vehicle id="66" depart="29.47">
        <route edges="145868728 145876496 611356040 145876499 158470844#1-AddedOnRampEdge 158470844#1 145852821 145852815 145852815-AddedOffRampEdge 1066957350 145852800#1"/>
    </vehicle>
    <vehicle id="62" depart="30.59">
        <route edges="145868728 145876496 611356040 145876499 158470844#1-AddedOnRampEdge 158470844#1 145852821 145852815 145852815-AddedOffRampEdge 1066957350 145852800#1"/>
    </vehicle>
    <vehicle id="9" depart="32.41">
        <route edges="145868728 145876496 611356040 145876499 158470844#1-AddedOnRampEdge 158470844#1 145852821 145852815 145852815-AddedOffRampEdge 1066957350 145852800#1"/>
    </vehicle>
    <vehicle id="74" depart="32.75">
        <route edges="145868728 145876496 611356040 145876499 158470844#1-AddedOnRampEdge 158470844#1 145852821 145852815 145852815-AddedOffRampEdge 1066957350 145852800#1"/>
    </vehicle>
    <vehicle id="53" depart="33.08">
        <route edges="145868728 145876496 611356040 145876499 158470844#1-AddedOnRampEdge 158470844#1 145852821 145852815 145852815-AddedOffRampEdge 1066957350 145852800#1"/>
    </vehicle>
    <vehicle id="94" depart="33.54">
        <route edges="145868728 145876496 611356040 145876499 158470844#1-AddedOnRampEdge 158470844#1 145852821 145852815 145852815-AddedOffRampEdge 1066957350 145852800#1"/>
    </vehicle>
    <vehicle id="40" depart="37.9">
        <route edges="145868728 145876496 611356040 145876499 158470844#1-AddedOnRampEdge 158470844#1 145852821 145852815 145852815-AddedOffRampEdge 1066957350 145852800#1"/>
    </vehicle>
    <vehicle id="68" depart="38.33">
        <route edges="145868728 145876496 611356040 145876499 158470844#1-AddedOnRampEdge 158470844#1 145852821 145852815 145852815-AddedOffRampEdge 1066957350 145852800#1"/>
    </vehicle>
    <vehicle id="69" depart="39.83">
        <route edges="145868728 145876496 611356040 145876499 158470844#1-AddedOnRampEdge 158470844#1 145852821 145852815 145852815-AddedOffRampEdge 1066957350 145852800#1"/>
    </vehicle>
    <vehicle id="85" depart="40.11">
        <route edges="145868728 145876496 611356040 145876499 158470844#1-AddedOnRampEdge 158470844#1 145852821 145852815 145852815-AddedOffRampEdge 1066957350 145852800#1"/>
    </vehicle>
    <vehicle id="7" depart="40.54">
        <route edges="145868728 145876496 611356040 145876499 158470844#1-AddedOnRampEdge 158470844#1 145852821 145852815 145852815-AddedOffRampEdge 1066957350 145852800#1"/>
    </vehicle>
    <vehicle id="48" depart="41.55">
        <route edges="145868728 145876496 611356040 145876499 158470844#1-AddedOnRampEdge 158470844#1 145852821 145852815 145852815-AddedOffRampEdge 1066957350 145852800#1"/>
    </vehicle>
    <vehicle id="73" depart="41.65">
        <route edges="145868728 145876496 611356040 145876499 158470844#1-AddedOnRampEdge 158470844#1 145852821 145852815 145852815-AddedOffRampEdge 1066957350 145852800#1"/>
    </vehicle>
    <vehicle id="29" depart="41.7">
        <route edges="145868728 145876496 611356040 145876499 158470844#1-AddedOnRampEdge 158470844#1 145852821 145852815 145852815-AddedOffRampEdge 1066957350 145852800#1"/>
    </vehicle>
    <vehicle id="24" depart="42.39">
        <route edges="145868728 145876496 611356040 145876499 158470844#1-AddedOnRampEdge 158470844#1 145852821 145852815 145852815-AddedOffRampEdge 1066957350 145852800#1"/>
    </vehicle>
    <vehicle id="59" depart="42.76">
        <route edges="145868728 145876496 611356040 145876499 158470844#1-AddedOnRampEdge 158470844#1 145852821 145852815 145852815-AddedOffRampEdge 1066957350 145852800#1"/>
    </vehicle>
    <vehicle id="71" depart="43.22">
        <route edges="145868728 145876496 611356040 145876499 158470844#1-AddedOnRampEdge 158470844#1 145852821 145852815 145852815-AddedOffRampEdge 1066957350 145852800#1"/>
    </vehicle>
    <vehicle id="6" depart="43.95">
        <route edges="145868728 145876496 611356040 145876499 158470844#1-AddedOnRampEdge 158470844#1 145852821 145852815 145852815-AddedOffRampEdge 1066957350 145852800#1"/>
    </vehicle>
    <vehicle id="42" depart="46.57">
        <route edges="145868728 145876496 611356040 145876499 158470844#1-AddedOnRampEdge 158470844#1 145852821 145852815 145852815-AddedOffRampEdge 1066957350 145852800#1"/>
    </vehicle>
    <vehicle id="49" depart="46.89">
        <route edges="145868728 145876496 611356040 145876499 158470844#1-AddedOnRampEdge 158470844#1 145852821 145852815 145852815-AddedOffRampEdge 1066957350 145852800#1"/>
    </vehicle>
    <vehicle id="31" depart="47.0">
        <route edges="145868728 145876496 611356040 145876499 158470844#1-AddedOnRampEdge 158470844#1 145852821 145852815 145852815-AddedOffRampEdge 1066957350 145852800#1"/>
    </vehicle>
    <vehicle id="25" depart="48.36">
        <route edges="145868728 145876496 611356040 145876499 158470844#1-AddedOnRampEdge 158470844#1 145852821 145852815 145852815-AddedOffRampEdge 1066957350 145852800#1"/>
    </vehicle>
    <vehicle id="79" depart="50.26">
        <route edges="145868728 145876496 611356040 145876499 158470844#1-AddedOnRampEdge 158470844#1 145852821 145852815 145852815-AddedOffRampEdge 1066957350 145852800#1"/>
    </vehicle>
    <vehicle id="88" depart="50.7">
        <route edges="145868728 145876496 611356040 145876499 158470844#1-AddedOnRampEdge 158470844#1 145852821 145852815 145852815-AddedOffRampEdge 1066957350 145852800#1"/>
    </vehicle>
    <vehicle id="34" depart="51.0">
        <route edges="145868728 145876496 611356040 145876499 158470844#1-AddedOnRampEdge 158470844#1 145852821 145852815 145852815-AddedOffRampEdge 1066957350 145852800#1"/>
    </vehicle>
    <vehicle id="67" depart="52.37">
        <route edges="145868728 145876496 611356040 145876499 158470844#1-AddedOnRampEdge 158470844#1 145852821 145852815 145852815-AddedOffRampEdge 1066957350 145852800#1"/>
    </vehicle>
    <vehicle id="27" depart="53.78">
        <route edges="145868728 145876496 611356040 145876499 158470844#1-AddedOnRampEdge 158470844#1 145852821 145852815 145852815-AddedOffRampEdge 1066957350 145852800#1"/>
    </vehicle>
    <vehicle id="38" depart="53.99">
        <route edges="145868728 145876496 611356040 145876499 158470844#1-AddedOnRampEdge 158470844#1 145852821 145852815 145852815-AddedOffRampEdge 1066957350 145852800#1"/>
    </vehicle>
    <vehicle id="54" depart="54.57">
        <route edges="145868728 145876496 611356040 145876499 158470844#1-AddedOnRampEdge 158470844#1 145852821 145852815 145852815-AddedOffRampEdge 1066957350 145852800#1"/>
    </vehicle>
    <vehicle id="75" depart="55.03">
        <route edges="145868728 145876496 611356040 145876499 158470844#1-AddedOnRampEdge 158470844#1 145852821 145852815 145852815-AddedOffRampEdge 1066957350 145852800#1"/>
    </vehicle>
    <vehicle id="13" depart="55.28">
        <route edges="145868728 145876496 611356040 145876499 158470844#1-AddedOnRampEdge 158470844#1 145852821 145852815 145852815-AddedOffRampEdge 1066957350 145852800#1"/>
    </vehicle>
    <vehicle id="61" depart="55.51">
        <route edges="145868728 145876496 611356040 145876499 158470844#1-AddedOnRampEdge 158470844#1 145852821 145852815 145852815-AddedOffRampEdge 1066957350 145852800#1"/>
    </vehicle>
    <vehicle id="11" depart="60.66">
        <route edges="145868728 145876496 611356040 145876499 158470844#1-AddedOnRampEdge 158470844#1 145852821 145852815 145852815-AddedOffRampEdge 1066957350 145852800#1"/>
    </vehicle>
    <vehicle id="56" depart="61.8">
        <route edges="145868728 145876496 611356040 145876499 158470844#1-AddedOnRampEdge 158470844#1 145852821 145852815 145852815-AddedOffRampEdge 1066957350 145852800#1"/>
    </vehicle>
    <vehicle id="46" depart="63.46">
        <route edges="145868728 145876496 611356040 145876499 158470844#1-AddedOnRampEdge 158470844#1 145852821 145852815 145852815-AddedOffRampEdge 1066957350 145852800#1"/>
    </vehicle>
    <vehicle id="20" depart="64.19">
        <route edges="145868728 145876496 611356040 145876499 158470844#1-AddedOnRampEdge 158470844#1 145852821 145852815 145852815-AddedOffRampEdge 1066957350 145852800#1"/>
    </vehicle>
    <vehicle id="41" depart="64.43">
        <route edges="145868728 145876496 611356040 145876499 158470844#1-AddedOnRampEdge 158470844#1 145852821 145852815 145852815-AddedOffRampEdge 1066957350 145852800#1"/>
    </vehicle>
    <vehicle id="72" depart="66.47">
        <route edges="145868728 145876496 611356040 145876499 158470844#1-AddedOnRampEdge 158470844#1 145852821 145852815 145852815-AddedOffRampEdge 1066957350 145852800#1"/>
    </vehicle>
    <vehicle id="83" depart="66.51">
        <route edges="145868728 145876496 611356040 145876499 158470844#1-AddedOnRampEdge 158470844#1 145852821 145852815 145852815-AddedOffRampEdge 1066957350 145852800#1"/>
    </vehicle>
    <vehicle id="52" depart="67.32">
        <route edges="145868728 145876496 611356040 145876499 158470844#1-AddedOnRampEdge 158470844#1 145852821 145852815 145852815-AddedOffRampEdge 1066957350 145852800#1"/>
    </vehicle>
    <vehicle id="70" depart="68.17">
        <route edges="145868728 145876496 611356040 145876499 158470844#1-AddedOnRampEdge 158470844#1 145852821 145852815 145852815-AddedOffRampEdge 1066957350 145852800#1"/>
    </vehicle>
    <vehicle id="37" depart="70.73">
        <route edges="145868728 145876496 611356040 145876499 158470844#1-AddedOnRampEdge 158470844#1 145852821 145852815 145852815-AddedOffRampEdge 1066957350 145852800#1"/>
    </vehicle>
    <vehicle id="81" depart="71.48">
        <route edges="145868728 145876496 611356040 145876499 158470844#1-AddedOnRampEdge 158470844#1 145852821 145852815 145852815-AddedOffRampEdge 1066957350 145852800#1"/>
    </vehicle>
    <vehicle id="96" depart="71.56">
        <route edges="145868728 145876496 611356040 145876499 158470844#1-AddedOnRampEdge 158470844#1 145852821 145852815 145852815-AddedOffRampEdge 1066957350 145852800#1"/>
    </vehicle>
    <vehicle id="30" depart="71.57">
        <route edges="145868728 145876496 611356040 145876499 158470844#1-AddedOnRampEdge 158470844#1 145852821 145852815 145852815-AddedOffRampEdge 1066957350 145852800#1"/>
    </vehicle>
    <vehicle id="50" depart="72.39">
        <route edges="145868728 145876496 611356040 145876499 158470844#1-AddedOnRampEdge 158470844#1 145852821 145852815 145852815-AddedOffRampEdge 1066957350 145852800#1"/>
    </vehicle>
    <vehicle id="8" depart="73.62">
        <route edges="145868728 145876496 611356040 145876499 158470844#1-AddedOnRampEdge 158470844#1 145852821 145852815 145852815-AddedOffRampEdge 1066957350 145852800#1"/>
    </vehicle>
    <vehicle id="14" depart="74.14">
        <route edges="145868728 145876496 611356040 145876499 158470844#1-AddedOnRampEdge 158470844#1 145852821 145852815 145852815-AddedOffRampEdge 1066957350 145852800#1"/>
    </vehicle>
    <vehicle id="36" depart="74.63">
        <route edges="145868728 145876496 611356040 145876499 158470844#1-AddedOnRampEdge 158470844#1 145852821 145852815 145852815-AddedOffRampEdge 1066957350 145852800#1"/>
    </vehicle>
    <vehicle id="89" depart="76.59">
        <route edges="145868728 145876496 611356040 145876499 158470844#1-AddedOnRampEdge 158470844#1 145852821 145852815 145852815-AddedOffRampEdge 1066957350 145852800#1"/>
    </vehicle>
    <vehicle id="1" depart="79.99">
        <route edges="145868728 145876496 611356040 145876499 158470844#1-AddedOnRampEdge 158470844#1 145852821 145852815 145852815-AddedOffRampEdge 1066957350 145852800#1"/>
    </vehicle>
    <vehicle id="99" depart="82.21">
        <route edges="145868728 145876496 611356040 145876499 158470844#1-AddedOnRampEdge 158470844#1 145852821 145852815 145852815-AddedOffRampEdge 1066957350 145852800#1"/>
    </vehicle>
    <vehicle id="58" depart="82.42">
        <route edges="145868728 145876496 611356040 145876499 158470844#1-AddedOnRampEdge 158470844#1 145852821 145852815 145852815-AddedOffRampEdge 1066957350 145852800#1"/>
    </vehicle>
    <vehicle id="76" depart="84.24">
        <route edges="145868728 145876496 611356040 145876499 158470844#1-AddedOnRampEdge 158470844#1 145852821 145852815 145852815-AddedOffRampEdge 1066957350 145852800#1"/>
    </vehicle>
    <vehicle id="91" depart="84.64">
        <route edges="145868728 145876496 611356040 145876499 158470844#1-AddedOnRampEdge 158470844#1 145852821 145852815 145852815-AddedOffRampEdge 1066957350 145852800#1"/>
    </vehicle>
    <vehicle id="28" depart="85.1">
        <route edges="145868728 145876496 611356040 145876499 158470844#1-AddedOnRampEdge 158470844#1 145852821 145852815 145852815-AddedOffRampEdge 1066957350 145852800#1"/>
    </vehicle>
    <vehicle id="45" depart="85.22">
        <route edges="145868728 145876496 611356040 145876499 158470844#1-AddedOnRampEdge 158470844#1 145852821 145852815 145852815-AddedOffRampEdge 1066957350 145852800#1"/>
    </vehicle>
    <vehicle id="12" depart="86.77">
        <route edges="145868728 145876496 611356040 145876499 158470844#1-AddedOnRampEdge 158470844#1 145852821 145852815 145852815-AddedOffRampEdge 1066957350 145852800#1"/>
    </vehicle>
    <vehicle id="95" depart="86.95">
        <route edges="145868728 145876496 611356040 145876499 158470844#1-AddedOnRampEdge 158470844#1 145852821 145852815 145852815-AddedOffRampEdge 1066957350 145852800#1"/>
    </vehicle>
    <vehicle id="98" depart="87.43">
        <route edges="145868728 145876496 611356040 145876499 158470844#1-AddedOnRampEdge 158470844#1 145852821 145852815 145852815-AddedOffRampEdge 1066957350 145852800#1"/>
    </vehicle>
    <vehicle id="64" depart="89.2">
        <route edges="145868728 145876496 611356040 145876499 158470844#1-AddedOnRampEdge 158470844#1 145852821 145852815 145852815-AddedOffRampEdge 1066957350 145852800#1"/>
    </vehicle>
    <vehicle id="87" depart="89.21">
        <route edges="145868728 145876496 611356040 145876499 158470844#1-AddedOnRampEdge 158470844#1 145852821 145852815 145852815-AddedOffRampEdge 1066957350 145852800#1"/>
    </vehicle>
    <vehicle id="5" depart="89.42">
        <route edges="145868728 145876496 611356040 145876499 158470844#1-AddedOnRampEdge 158470844#1 145852821 145852815 145852815-AddedOffRampEdge 1066957350 145852800#1"/>
    </vehicle>
    <vehicle id="47" depart="90.77">
        <route edges="145868728 145876496 611356040 145876499 158470844#1-AddedOnRampEdge 158470844#1 145852821 145852815 145852815-AddedOffRampEdge 1066957350 145852800#1"/>
    </vehicle>
    <vehicle id="4" depart="91.2">
        <route edges="145868728 145876496 611356040 145876499 158470844#1-AddedOnRampEdge 158470844#1 145852821 145852815 145852815-AddedOffRampEdge 1066957350 145852800#1"/>
    </vehicle>
    <vehicle id="21" depart="92.25">
        <route edges="145868728 145876496 611356040 145876499 158470844#1-AddedOnRampEdge 158470844#1 145852821 145852815 145852815-AddedOffRampEdge 1066957350 145852800#1"/>
    </vehicle>
    <vehicle id="86" depart="92.91">
        <route edges="145868728 145876496 611356040 145876499 158470844#1-AddedOnRampEdge 158470844#1 145852821 145852815 145852815-AddedOffRampEdge 1066957350 145852800#1"/>
    </vehicle>
    <vehicle id="35" depart="93.87">
        <route edges="145868728 145876496 611356040 145876499 158470844#1-AddedOnRampEdge 158470844#1 145852821 145852815 145852815-AddedOffRampEdge 1066957350 145852800#1"/>
    </vehicle>
    <vehicle id="26" depart="93.91">
        <route edges="145868728 145876496 611356040 145876499 158470844#1-AddedOnRampEdge 158470844#1 145852821 145852815 145852815-AddedOffRampEdge 1066957350 145852800#1"/>
    </vehicle>
    <vehicle id="15" depart="96.18">
        <route edges="145868728 145876496 611356040 145876499 158470844#1-AddedOnRampEdge 158470844#1 145852821 145852815 145852815-AddedOffRampEdge 1066957350 145852800#1"/>
    </vehicle>
    <vehicle id="44" depart="97.7">
        <route edges="145868728 145876496 611356040 145876499 158470844#1-AddedOnRampEdge 158470844#1 145852821 145852815 145852815-AddedOffRampEdge 1066957350 145852800#1"/>
    </vehicle>
    <vehicle id="3" depart="97.73">
        <route edges="145868728 145876496 611356040 145876499 158470844#1-AddedOnRampEdge 158470844#1 145852821 145852815 145852815-AddedOffRampEdge 1066957350 145852800#1"/>
    </vehicle>
    <vehicle id="82" depart="98.3">
        <route edges="145868728 145876496 611356040 145876499 158470844#1-AddedOnRampEdge 158470844#1 145852821 145852815 145852815-AddedOffRampEdge 1066957350 145852800#1"/>
    </vehicle>
    <vehicle id="55" depart="98.63">
        <route edges="145868728 145876496 611356040 145876499 158470844#1-AddedOnRampEdge 158470844#1 145852821 145852815 145852815-AddedOffRampEdge 1066957350 145852800#1"/>
    </vehicle>
    <vehicle id="78" depart="99.27">
        <route edges="145868728 145876496 611356040 145876499 158470844#1-AddedOnRampEdge 158470844#1 145852821 145852815 145852815-AddedOffRampEdge 1066957350 145852800#1"/>
    </vehicle>
</routes>
