<?xml version="1.0" encoding="UTF-8"?>
<routes xmlns:xsi="http://www.w3.org/2001/XMLSchema-instance" xsi:noNamespaceSchemaLocation="http://sumo.dlr.de/xsd/routes_file.xsd">
    <vehicle id="m602-m60_1199" depart="1.09">
        <route edges="E5 145868728 145876496 611356040 145876499 158470844#1-AddedOnRampEdge 158470844#1 145852821 145852821.67 145852815 145852815-AddedOffRampEdge 1066957350 145852800#1"/>
    </vehicle>
    <vehicle id="m60-north_569" depart="1.13">
        <route edges="E13 E2 146417963 146417963-AddedOffRampEdge 158470844#0 158470844#1-AddedOnRampEdge 158470844#1 145852821 145852821.67 145852815 145852815-AddedOffRampEdge 1066957350 145852800#1"/>
    </vehicle>
    <vehicle id="m60-worsley_955" depart="1.31">
        <route edges="E9 E1 146417963 146417963-AddedOffRampEdge 158470844#0 158470844#1-AddedOnRampEdge 158470844#1 145852821 145852821.67 145852815 145852815-AddedOffRampEdge 145852856"/>
    </vehicle>
    <vehicle id="m60-north_174" depart="1.36">
        <route edges="E10 E1 146417963 146417963-AddedOffRampEdge 158470844#0 158470844#1-AddedOnRampEdge 158470844#1 145852821 145852821.67 145852815 145852815-AddedOffRampEdge 1066957350 145852800#1"/>
    </vehicle>
    <vehicle id="m60-north_1012" depart="1.37">
        <route edges="E13 E2 146417963 146417963-AddedOffRampEdge 158470844#0 158470844#1-AddedOnRampEdge 158470844#1 145852821 145852821.67 145852815 145852815-AddedOffRampEdge 1066957350 145852800#1"/>
    </vehicle>
    <vehicle id="m602-m60_700" depart="1.94">
        <route edges="E4 145868728 145876496 611356040 145876499 158470844#1-AddedOnRampEdge 158470844#1 145852821 145852821.67 145852815 145852815-AddedOffRampEdge 1066957350 145852800#1"/>
    </vehicle>
    <vehicle id="m60-north_980" depart="2.28">
        <route edges="E9 E1 146417963 146417963-AddedOffRampEdge 158470844#0 158470844#1-AddedOnRampEdge 158470844#1 145852821 145852821.67 145852815 145852815-AddedOffRampEdge 1066957350 145852800#1"/>
    </vehicle>
    <vehicle id="m602-m60_284" depart="2.48">
        <route edges="E5 145868728 145876496 611356040 145876499 158470844#1-AddedOnRampEdge 158470844#1 145852821 145852821.67 145852815 145852815-AddedOffRampEdge 1066957350 145852800#1"/>
    </vehicle>
    <vehicle id="m62-m60-a_89" depart="2.79">
        <route edges="E6 46372495 111538044 296702213 296702213.417 145852821 145852821.67 145852815 145852815-AddedOffRampEdge 1066957350 145852800#1"/>
    </vehicle>
    <vehicle id="m60-north_771" depart="2.79">
        <route edges="E10 E1 146417963 146417963-AddedOffRampEdge 158470844#0 158470844#1-AddedOnRampEdge 158470844#1 145852821 145852821.67 145852815 145852815-AddedOffRampEdge 1066957350 145852800#1"/>
    </vehicle>
    <vehicle id="m60-north_697" depart="2.92">
        <route edges="E12 E0 146417963 146417963-AddedOffRampEdge 158470844#0 158470844#1-AddedOnRampEdge 158470844#1 145852821 145852821.67 145852815 145852815-AddedOffRampEdge 1066957350 145852800#1"/>
    </vehicle>
    <vehicle id="m60-north_1120" depart="2.94">
        <route edges="E13 E2 146417963 146417963-AddedOffRampEdge 158470844#0 158470844#1-AddedOnRampEdge 158470844#1 145852821 145852821.67 145852815 145852815-AddedOffRampEdge 1066957350 145852800#1"/>
    </vehicle>
    <vehicle id="m60-north_117" depart="3.18">
        <route edges="E14 E2 146417963 146417963-AddedOffRampEdge 158470844#0 158470844#1-AddedOnRampEdge 158470844#1 145852821 145852821.67 145852815 145852815-AddedOffRampEdge 1066957350 145852800#1"/>
    </vehicle>
    <vehicle id="m602-m60_101" depart="3.4">
        <route edges="E3 145868728 145876496 611356040 145876499 158470844#1-AddedOnRampEdge 158470844#1 145852821 145852821.67 145852815 145852815-AddedOffRampEdge 1066957350 145852800#1"/>
    </vehicle>
    <vehicle id="m62-m60-b_696" depart="3.81">
        <route edges="E6 46372495 111538044 296702213 E15 145852821.67 145852815 145852815-AddedOffRampEdge 1066957350 145852800#1"/>
    </vehicle>
    <vehicle id="m602-m60_193" depart="3.94">
        <route edges="E3 145868728 145876496 611356040 145876499 158470844#1-AddedOnRampEdge 158470844#1 145852821 145852821.67 145852815 145852815-AddedOffRampEdge 1066957350 145852800#1"/>
    </vehicle>
    <vehicle id="m60-north_1151" depart="3.97">
        <route edges="E10 E1 146417963 146417963-AddedOffRampEdge 158470844#0 158470844#1-AddedOnRampEdge 158470844#1 145852821 145852821.67 145852815 145852815-AddedOffRampEdge 1066957350 145852800#1"/>
    </vehicle>
    <vehicle id="m602-m60_1070" depart="4.29">
        <route edges="E5 145868728 145876496 611356040 145876499 158470844#1-AddedOnRampEdge 158470844#1 145852821 145852821.67 145852815 145852815-AddedOffRampEdge 1066957350 145852800#1"/>
    </vehicle>
    <vehicle id="m602-m60_1100" depart="4.35">
        <route edges="E4 145868728 145876496 611356040 145876499 158470844#1-AddedOnRampEdge 158470844#1 145852821 145852821.67 145852815 145852815-AddedOffRampEdge 1066957350 145852800#1"/>
    </vehicle>
    <vehicle id="m62-m60-a_246" depart="4.49">
        <route edges="E8 46372495 111538044 296702213 296702213.417 145852821 145852821.67 145852815 145852815-AddedOffRampEdge 1066957350 145852800#1"/>
    </vehicle>
    <vehicle id="m60-north_1126" depart="4.5">
        <route edges="E10 E1 146417963 146417963-AddedOffRampEdge 158470844#0 158470844#1-AddedOnRampEdge 158470844#1 145852821 145852821.67 145852815 145852815-AddedOffRampEdge 1066957350 145852800#1"/>
    </vehicle>
    <vehicle id="m60-north_607" depart="4.85">
        <route edges="E12 E0 146417963 146417963-AddedOffRampEdge 158470844#0 158470844#1-AddedOnRampEdge 158470844#1 145852821 145852821.67 145852815 145852815-AddedOffRampEdge 1066957350 145852800#1"/>
    </vehicle>
    <vehicle id="m60-worsley_157" depart="4.98">
        <route edges="E9 E1 146417963 146417963-AddedOffRampEdge 158470844#0 158470844#1-AddedOnRampEdge 158470844#1 145852821 145852821.67 145852815 145852815-AddedOffRampEdge 145852856"/>
    </vehicle>
    <vehicle id="m62-m60-b_1063" depart="5.62">
        <route edges="E8 46372495 111538044 296702213 E15 145852821.67 145852815 145852815-AddedOffRampEdge 1066957350 145852800#1"/>
    </vehicle>
    <vehicle id="m602-m60_742" depart="5.79">
        <route edges="E5 145868728 145876496 611356040 145876499 158470844#1-AddedOnRampEdge 158470844#1 145852821 145852821.67 145852815 145852815-AddedOffRampEdge 1066957350 145852800#1"/>
    </vehicle>
    <vehicle id="m60-north_984" depart="5.81">
        <route edges="E12 E0 146417963 146417963-AddedOffRampEdge 158470844#0 158470844#1-AddedOnRampEdge 158470844#1 145852821 145852821.67 145852815 145852815-AddedOffRampEdge 1066957350 145852800#1"/>
    </vehicle>
    <vehicle id="m60-north_378" depart="6.1">
        <route edges="E13 E2 146417963 146417963-AddedOffRampEdge 158470844#0 158470844#1-AddedOnRampEdge 158470844#1 145852821 145852821.67 145852815 145852815-AddedOffRampEdge 1066957350 145852800#1"/>
    </vehicle>
    <vehicle id="m60-north_1042" depart="6.12">
        <route edges="E13 E2 146417963 146417963-AddedOffRampEdge 158470844#0 158470844#1-AddedOnRampEdge 158470844#1 145852821 145852821.67 145852815 145852815-AddedOffRampEdge 1066957350 145852800#1"/>
    </vehicle>
    <vehicle id="m60-north_862" depart="6.67">
        <route edges="E12 E0 146417963 146417963-AddedOffRampEdge 158470844#0 158470844#1-AddedOnRampEdge 158470844#1 145852821 145852821.67 145852815 145852815-AddedOffRampEdge 1066957350 145852800#1"/>
    </vehicle>
    <vehicle id="m60-north_146" depart="7.16">
        <route edges="E10 E1 146417963 146417963-AddedOffRampEdge 158470844#0 158470844#1-AddedOnRampEdge 158470844#1 145852821 145852821.67 145852815 145852815-AddedOffRampEdge 1066957350 145852800#1"/>
    </vehicle>
    <vehicle id="m62-m60-b_269" depart="7.41">
        <route edges="E7 46372495 111538044 296702213 E15 145852821.67 145852815 145852815-AddedOffRampEdge 1066957350 145852800#1"/>
    </vehicle>
    <vehicle id="m60-north_653" depart="7.44">
        <route edges="E14 E2 146417963 146417963-AddedOffRampEdge 158470844#0 158470844#1-AddedOnRampEdge 158470844#1 145852821 145852821.67 145852815 145852815-AddedOffRampEdge 1066957350 145852800#1"/>
    </vehicle>
    <vehicle id="m60-north_352" depart="8.02">
        <route edges="E11 E0 146417963 146417963-AddedOffRampEdge 158470844#0 158470844#1-AddedOnRampEdge 158470844#1 145852821 145852821.67 145852815 145852815-AddedOffRampEdge 1066957350 145852800#1"/>
    </vehicle>
    <vehicle id="m62-m60-b_1111" depart="8.27">
        <route edges="E6 46372495 111538044 296702213 E15 145852821.67 145852815 145852815-AddedOffRampEdge 1066957350 145852800#1"/>
    </vehicle>
    <vehicle id="m60-north_298" depart="8.43">
        <route edges="E13 E2 146417963 146417963-AddedOffRampEdge 158470844#0 158470844#1-AddedOnRampEdge 158470844#1 145852821 145852821.67 145852815 145852815-AddedOffRampEdge 1066957350 145852800#1"/>
    </vehicle>
    <vehicle id="m60-worsley_202" depart="8.45">
        <route edges="E9 E1 146417963 146417963-AddedOffRampEdge 158470844#0 158470844#1-AddedOnRampEdge 158470844#1 145852821 145852821.67 145852815 145852815-AddedOffRampEdge 145852856"/>
    </vehicle>
    <vehicle id="m62-m60-a_20" depart="8.49">
        <route edges="E8 46372495 111538044 296702213 296702213.417 145852821 145852821.67 145852815 145852815-AddedOffRampEdge 1066957350 145852800#1"/>
    </vehicle>
    <vehicle id="m602-m60_195" depart="8.57">
        <route edges="E4 145868728 145876496 611356040 145876499 158470844#1-AddedOnRampEdge 158470844#1 145852821 145852821.67 145852815 145852815-AddedOffRampEdge 1066957350 145852800#1"/>
    </vehicle>
    <vehicle id="m62-m60-a_811" depart="8.7">
        <route edges="E7 46372495 111538044 296702213 296702213.417 145852821 145852821.67 145852815 145852815-AddedOffRampEdge 1066957350 145852800#1"/>
    </vehicle>
    <vehicle id="m62-m60-b_673" depart="8.87">
        <route edges="E8 46372495 111538044 296702213 E15 145852821.67 145852815 145852815-AddedOffRampEdge 1066957350 145852800#1"/>
    </vehicle>
    <vehicle id="m60-north_325" depart="8.94">
        <route edges="E11 E0 146417963 146417963-AddedOffRampEdge 158470844#0 158470844#1-AddedOnRampEdge 158470844#1 145852821 145852821.67 145852815 145852815-AddedOffRampEdge 1066957350 145852800#1"/>
    </vehicle>
    <vehicle id="m62-m60-a_357" depart="9.01">
        <route edges="E6 46372495 111538044 296702213 296702213.417 145852821 145852821.67 145852815 145852815-AddedOffRampEdge 1066957350 145852800#1"/>
    </vehicle>
    <vehicle id="m602-m60_907" depart="9.06">
        <route edges="E4 145868728 145876496 611356040 145876499 158470844#1-AddedOnRampEdge 158470844#1 145852821 145852821.67 145852815 145852815-AddedOffRampEdge 1066957350 145852800#1"/>
    </vehicle>
    <vehicle id="m62-m60-a_194" depart="9.16">
        <route edges="E8 46372495 111538044 296702213 296702213.417 145852821 145852821.67 145852815 145852815-AddedOffRampEdge 1066957350 145852800#1"/>
    </vehicle>
    <vehicle id="m62-m60-a_17" depart="9.3">
        <route edges="E7 46372495 111538044 296702213 296702213.417 145852821 145852821.67 145852815 145852815-AddedOffRampEdge 1066957350 145852800#1"/>
    </vehicle>
    <vehicle id="m602-m60_969" depart="9.91">
        <route edges="E3 145868728 145876496 611356040 145876499 158470844#1-AddedOnRampEdge 158470844#1 145852821 145852821.67 145852815 145852815-AddedOffRampEdge 1066957350 145852800#1"/>
    </vehicle>
    <vehicle id="m602-m60_425" depart="9.96">
        <route edges="E4 145868728 145876496 611356040 145876499 158470844#1-AddedOnRampEdge 158470844#1 145852821 145852821.67 145852815 145852815-AddedOffRampEdge 1066957350 145852800#1"/>
    </vehicle>
    <vehicle id="m62-m60-b_645" depart="10.18">
        <route edges="E8 46372495 111538044 296702213 E15 145852821.67 145852815 145852815-AddedOffRampEdge 1066957350 145852800#1"/>
    </vehicle>
    <vehicle id="m60-worsley_210" depart="10.32">
        <route edges="E13 E2 146417963 146417963-AddedOffRampEdge 158470844#0 158470844#1-AddedOnRampEdge 158470844#1 145852821 145852821.67 145852815 145852815-AddedOffRampEdge 145852856"/>
    </vehicle>
    <vehicle id="m602-m60_524" depart="10.54">
        <route edges="E5 145868728 145876496 611356040 145876499 158470844#1-AddedOnRampEdge 158470844#1 145852821 145852821.67 145852815 145852815-AddedOffRampEdge 1066957350 145852800#1"/>
    </vehicle>
    <vehicle id="m62-m60-a_904" depart="11.03">
        <route edges="E8 46372495 111538044 296702213 296702213.417 145852821 145852821.67 145852815 145852815-AddedOffRampEdge 1066957350 145852800#1"/>
    </vehicle>
    <vehicle id="m62-m60-b_1144" depart="11.21">
        <route edges="E8 46372495 111538044 296702213 E15 145852821.67 145852815 145852815-AddedOffRampEdge 1066957350 145852800#1"/>
    </vehicle>
    <vehicle id="m62-m60-b_832" depart="11.22">
        <route edges="E7 46372495 111538044 296702213 E15 145852821.67 145852815 145852815-AddedOffRampEdge 1066957350 145852800#1"/>
    </vehicle>
    <vehicle id="m60-worsley_944" depart="11.29">
        <route edges="E13 E2 146417963 146417963-AddedOffRampEdge 158470844#0 158470844#1-AddedOnRampEdge 158470844#1 145852821 145852821.67 145852815 145852815-AddedOffRampEdge 145852856"/>
    </vehicle>
    <vehicle id="m60-worsley_499" depart="11.33">
        <route edges="E9 E1 146417963 146417963-AddedOffRampEdge 158470844#0 158470844#1-AddedOnRampEdge 158470844#1 145852821 145852821.67 145852815 145852815-AddedOffRampEdge 145852856"/>
    </vehicle>
    <vehicle id="m60-north_383" depart="11.57">
        <route edges="E10 E1 146417963 146417963-AddedOffRampEdge 158470844#0 158470844#1-AddedOnRampEdge 158470844#1 145852821 145852821.67 145852815 145852815-AddedOffRampEdge 1066957350 145852800#1"/>
    </vehicle>
    <vehicle id="m62-m60-b_1167" depart="11.58">
        <route edges="E8 46372495 111538044 296702213 E15 145852821.67 145852815 145852815-AddedOffRampEdge 1066957350 145852800#1"/>
    </vehicle>
    <vehicle id="m60-north_267" depart="11.6">
        <route edges="E12 E0 146417963 146417963-AddedOffRampEdge 158470844#0 158470844#1-AddedOnRampEdge 158470844#1 145852821 145852821.67 145852815 145852815-AddedOffRampEdge 1066957350 145852800#1"/>
    </vehicle>
    <vehicle id="m60-north_610" depart="11.72">
        <route edges="E14 E2 146417963 146417963-AddedOffRampEdge 158470844#0 158470844#1-AddedOnRampEdge 158470844#1 145852821 145852821.67 145852815 145852815-AddedOffRampEdge 1066957350 145852800#1"/>
    </vehicle>
    <vehicle id="m62-m60-b_1137" depart="11.72">
        <route edges="E7 46372495 111538044 296702213 E15 145852821.67 145852815 145852815-AddedOffRampEdge 1066957350 145852800#1"/>
    </vehicle>
    <vehicle id="m602-m60_188" depart="11.73">
        <route edges="E5 145868728 145876496 611356040 145876499 158470844#1-AddedOnRampEdge 158470844#1 145852821 145852821.67 145852815 145852815-AddedOffRampEdge 1066957350 145852800#1"/>
    </vehicle>
    <vehicle id="m60-worsley_181" depart="12.16">
        <route edges="E10 E1 146417963 146417963-AddedOffRampEdge 158470844#0 158470844#1-AddedOnRampEdge 158470844#1 145852821 145852821.67 145852815 145852815-AddedOffRampEdge 145852856"/>
    </vehicle>
    <vehicle id="m60-worsley_642" depart="12.22">
        <route edges="E9 E1 146417963 146417963-AddedOffRampEdge 158470844#0 158470844#1-AddedOnRampEdge 158470844#1 145852821 145852821.67 145852815 145852815-AddedOffRampEdge 145852856"/>
    </vehicle>
    <vehicle id="m60-worsley_537" depart="12.5">
        <route edges="E11 E0 146417963 146417963-AddedOffRampEdge 158470844#0 158470844#1-AddedOnRampEdge 158470844#1 145852821 145852821.67 145852815 145852815-AddedOffRampEdge 145852856"/>
    </vehicle>
    <vehicle id="m602-m60_400" depart="12.76">
        <route edges="E5 145868728 145876496 611356040 145876499 158470844#1-AddedOnRampEdge 158470844#1 145852821 145852821.67 145852815 145852815-AddedOffRampEdge 1066957350 145852800#1"/>
    </vehicle>
    <vehicle id="m602-m60_126" depart="12.84">
        <route edges="E3 145868728 145876496 611356040 145876499 158470844#1-AddedOnRampEdge 158470844#1 145852821 145852821.67 145852815 145852815-AddedOffRampEdge 1066957350 145852800#1"/>
    </vehicle>
    <vehicle id="m60-worsley_711" depart="12.92">
        <route edges="E11 E0 146417963 146417963-AddedOffRampEdge 158470844#0 158470844#1-AddedOnRampEdge 158470844#1 145852821 145852821.67 145852815 145852815-AddedOffRampEdge 145852856"/>
    </vehicle>
    <vehicle id="m60-north_755" depart="12.97">
        <route edges="E11 E0 146417963 146417963-AddedOffRampEdge 158470844#0 158470844#1-AddedOnRampEdge 158470844#1 145852821 145852821.67 145852815 145852815-AddedOffRampEdge 1066957350 145852800#1"/>
    </vehicle>
    <vehicle id="m60-north_693" depart="13.26">
        <route edges="E10 E1 146417963 146417963-AddedOffRampEdge 158470844#0 158470844#1-AddedOnRampEdge 158470844#1 145852821 145852821.67 145852815 145852815-AddedOffRampEdge 1066957350 145852800#1"/>
    </vehicle>
    <vehicle id="m62-m60-a_90" depart="13.31">
        <route edges="E7 46372495 111538044 296702213 296702213.417 145852821 145852821.67 145852815 145852815-AddedOffRampEdge 1066957350 145852800#1"/>
    </vehicle>
    <vehicle id="m602-m60_317" depart="13.84">
        <route edges="E5 145868728 145876496 611356040 145876499 158470844#1-AddedOnRampEdge 158470844#1 145852821 145852821.67 145852815 145852815-AddedOffRampEdge 1066957350 145852800#1"/>
    </vehicle>
    <vehicle id="m60-north_244" depart="14.2">
        <route edges="E9 E1 146417963 146417963-AddedOffRampEdge 158470844#0 158470844#1-AddedOnRampEdge 158470844#1 145852821 145852821.67 145852815 145852815-AddedOffRampEdge 1066957350 145852800#1"/>
    </vehicle>
    <vehicle id="m60-north_737" depart="14.32">
        <route edges="E14 E2 146417963 146417963-AddedOffRampEdge 158470844#0 158470844#1-AddedOnRampEdge 158470844#1 145852821 145852821.67 145852815 145852815-AddedOffRampEdge 1066957350 145852800#1"/>
    </vehicle>
    <vehicle id="m62-m60-a_473" depart="14.53">
        <route edges="E6 46372495 111538044 296702213 296702213.417 145852821 145852821.67 145852815 145852815-AddedOffRampEdge 1066957350 145852800#1"/>
    </vehicle>
    <vehicle id="m60-north_140" depart="14.57">
        <route edges="E12 E0 146417963 146417963-AddedOffRampEdge 158470844#0 158470844#1-AddedOnRampEdge 158470844#1 145852821 145852821.67 145852815 145852815-AddedOffRampEdge 1066957350 145852800#1"/>
    </vehicle>
    <vehicle id="m60-north_137" depart="14.6">
        <route edges="E13 E2 146417963 146417963-AddedOffRampEdge 158470844#0 158470844#1-AddedOnRampEdge 158470844#1 145852821 145852821.67 145852815 145852815-AddedOffRampEdge 1066957350 145852800#1"/>
    </vehicle>
    <vehicle id="m60-north_757" depart="14.8">
        <route edges="E14 E2 146417963 146417963-AddedOffRampEdge 158470844#0 158470844#1-AddedOnRampEdge 158470844#1 145852821 145852821.67 145852815 145852815-AddedOffRampEdge 1066957350 145852800#1"/>
    </vehicle>
    <vehicle id="m62-m60-b_92" depart="14.81">
        <route edges="E6 46372495 111538044 296702213 E15 145852821.67 145852815 145852815-AddedOffRampEdge 1066957350 145852800#1"/>
    </vehicle>
    <vehicle id="m60-north_198" depart="14.86">
        <route edges="E13 E2 146417963 146417963-AddedOffRampEdge 158470844#0 158470844#1-AddedOnRampEdge 158470844#1 145852821 145852821.67 145852815 145852815-AddedOffRampEdge 1066957350 145852800#1"/>
    </vehicle>
    <vehicle id="m60-north_1009" depart="15.0">
        <route edges="E11 E0 146417963 146417963-AddedOffRampEdge 158470844#0 158470844#1-AddedOnRampEdge 158470844#1 145852821 145852821.67 145852815 145852815-AddedOffRampEdge 1066957350 145852800#1"/>
    </vehicle>
    <vehicle id="m60-north_108" depart="15.36">
        <route edges="E11 E0 146417963 146417963-AddedOffRampEdge 158470844#0 158470844#1-AddedOnRampEdge 158470844#1 145852821 145852821.67 145852815 145852815-AddedOffRampEdge 1066957350 145852800#1"/>
    </vehicle>
    <vehicle id="m60-north_236" depart="15.48">
        <route edges="E13 E2 146417963 146417963-AddedOffRampEdge 158470844#0 158470844#1-AddedOnRampEdge 158470844#1 145852821 145852821.67 145852815 145852815-AddedOffRampEdge 1066957350 145852800#1"/>
    </vehicle>
    <vehicle id="m602-m60_321" depart="15.49">
        <route edges="E3 145868728 145876496 611356040 145876499 158470844#1-AddedOnRampEdge 158470844#1 145852821 145852821.67 145852815 145852815-AddedOffRampEdge 1066957350 145852800#1"/>
    </vehicle>
    <vehicle id="m602-m60_577" depart="15.7">
        <route edges="E3 145868728 145876496 611356040 145876499 158470844#1-AddedOnRampEdge 158470844#1 145852821 145852821.67 145852815 145852815-AddedOffRampEdge 1066957350 145852800#1"/>
    </vehicle>
    <vehicle id="m60-north_544" depart="15.9">
        <route edges="E13 E2 146417963 146417963-AddedOffRampEdge 158470844#0 158470844#1-AddedOnRampEdge 158470844#1 145852821 145852821.67 145852815 145852815-AddedOffRampEdge 1066957350 145852800#1"/>
    </vehicle>
    <vehicle id="m60-north_909" depart="16.25">
        <route edges="E9 E1 146417963 146417963-AddedOffRampEdge 158470844#0 158470844#1-AddedOnRampEdge 158470844#1 145852821 145852821.67 145852815 145852815-AddedOffRampEdge 1066957350 145852800#1"/>
    </vehicle>
    <vehicle id="m602-m60_186" depart="16.34">
        <route edges="E5 145868728 145876496 611356040 145876499 158470844#1-AddedOnRampEdge 158470844#1 145852821 145852821.67 145852815 145852815-AddedOffRampEdge 1066957350 145852800#1"/>
    </vehicle>
    <vehicle id="m60-north_337" depart="16.53">
        <route edges="E14 E2 146417963 146417963-AddedOffRampEdge 158470844#0 158470844#1-AddedOnRampEdge 158470844#1 145852821 145852821.67 145852815 145852815-AddedOffRampEdge 1066957350 145852800#1"/>
    </vehicle>
    <vehicle id="m60-worsley_511" depart="16.78">
        <route edges="E10 E1 146417963 146417963-AddedOffRampEdge 158470844#0 158470844#1-AddedOnRampEdge 158470844#1 145852821 145852821.67 145852815 145852815-AddedOffRampEdge 145852856"/>
    </vehicle>
    <vehicle id="m602-m60_66" depart="17.13">
        <route edges="E4 145868728 145876496 611356040 145876499 158470844#1-AddedOnRampEdge 158470844#1 145852821 145852821.67 145852815 145852815-AddedOffRampEdge 1066957350 145852800#1"/>
    </vehicle>
    <vehicle id="m60-north_331" depart="17.28">
        <route edges="E12 E0 146417963 146417963-AddedOffRampEdge 158470844#0 158470844#1-AddedOnRampEdge 158470844#1 145852821 145852821.67 145852815 145852815-AddedOffRampEdge 1066957350 145852800#1"/>
    </vehicle>
    <vehicle id="m60-north_1005" depart="17.32">
        <route edges="E12 E0 146417963 146417963-AddedOffRampEdge 158470844#0 158470844#1-AddedOnRampEdge 158470844#1 145852821 145852821.67 145852815 145852815-AddedOffRampEdge 1066957350 145852800#1"/>
    </vehicle>
    <vehicle id="m62-m60-b_745" depart="17.41">
        <route edges="E7 46372495 111538044 296702213 E15 145852821.67 145852815 145852815-AddedOffRampEdge 1066957350 145852800#1"/>
    </vehicle>
    <vehicle id="m60-north_297" depart="18.09">
        <route edges="E10 E1 146417963 146417963-AddedOffRampEdge 158470844#0 158470844#1-AddedOnRampEdge 158470844#1 145852821 145852821.67 145852815 145852815-AddedOffRampEdge 1066957350 145852800#1"/>
    </vehicle>
    <vehicle id="m62-m60-a_323" depart="18.48">
        <route edges="E6 46372495 111538044 296702213 296702213.417 145852821 145852821.67 145852815 145852815-AddedOffRampEdge 1066957350 145852800#1"/>
    </vehicle>
    <vehicle id="m60-north_884" depart="18.54">
        <route edges="E13 E2 146417963 146417963-AddedOffRampEdge 158470844#0 158470844#1-AddedOnRampEdge 158470844#1 145852821 145852821.67 145852815 145852815-AddedOffRampEdge 1066957350 145852800#1"/>
    </vehicle>
    <vehicle id="m60-north_602" depart="18.71">
        <route edges="E11 E0 146417963 146417963-AddedOffRampEdge 158470844#0 158470844#1-AddedOnRampEdge 158470844#1 145852821 145852821.67 145852815 145852815-AddedOffRampEdge 1066957350 145852800#1"/>
    </vehicle>
    <vehicle id="m60-north_470" depart="18.75">
        <route edges="E13 E2 146417963 146417963-AddedOffRampEdge 158470844#0 158470844#1-AddedOnRampEdge 158470844#1 145852821 145852821.67 145852815 145852815-AddedOffRampEdge 1066957350 145852800#1"/>
    </vehicle>
    <vehicle id="m60-north_1032" depart="18.92">
        <route edges="E14 E2 146417963 146417963-AddedOffRampEdge 158470844#0 158470844#1-AddedOnRampEdge 158470844#1 145852821 145852821.67 145852815 145852815-AddedOffRampEdge 1066957350 145852800#1"/>
    </vehicle>
    <vehicle id="m62-m60-b_764" depart="19.34">
        <route edges="E7 46372495 111538044 296702213 E15 145852821.67 145852815 145852815-AddedOffRampEdge 1066957350 145852800#1"/>
    </vehicle>
    <vehicle id="m60-north_340" depart="19.57">
        <route edges="E11 E0 146417963 146417963-AddedOffRampEdge 158470844#0 158470844#1-AddedOnRampEdge 158470844#1 145852821 145852821.67 145852815 145852815-AddedOffRampEdge 1066957350 145852800#1"/>
    </vehicle>
    <vehicle id="m60-worsley_506" depart="19.58">
        <route edges="E11 E0 146417963 146417963-AddedOffRampEdge 158470844#0 158470844#1-AddedOnRampEdge 158470844#1 145852821 145852821.67 145852815 145852815-AddedOffRampEdge 145852856"/>
    </vehicle>
    <vehicle id="m60-worsley_591" depart="19.58">
        <route edges="E13 E2 146417963 146417963-AddedOffRampEdge 158470844#0 158470844#1-AddedOnRampEdge 158470844#1 145852821 145852821.67 145852815 145852815-AddedOffRampEdge 145852856"/>
    </vehicle>
    <vehicle id="m602-m60_397" depart="20.05">
        <route edges="E4 145868728 145876496 611356040 145876499 158470844#1-AddedOnRampEdge 158470844#1 145852821 145852821.67 145852815 145852815-AddedOffRampEdge 1066957350 145852800#1"/>
    </vehicle>
    <vehicle id="m602-m60_900" depart="20.07">
        <route edges="E4 145868728 145876496 611356040 145876499 158470844#1-AddedOnRampEdge 158470844#1 145852821 145852821.67 145852815 145852815-AddedOffRampEdge 1066957350 145852800#1"/>
    </vehicle>
    <vehicle id="m60-north_19" depart="20.35">
        <route edges="E9 E1 146417963 146417963-AddedOffRampEdge 158470844#0 158470844#1-AddedOnRampEdge 158470844#1 145852821 145852821.67 145852815 145852815-AddedOffRampEdge 1066957350 145852800#1"/>
    </vehicle>
    <vehicle id="m60-north_658" depart="20.75">
        <route edges="E13 E2 146417963 146417963-AddedOffRampEdge 158470844#0 158470844#1-AddedOnRampEdge 158470844#1 145852821 145852821.67 145852815 145852815-AddedOffRampEdge 1066957350 145852800#1"/>
    </vehicle>
    <vehicle id="m60-north_205" depart="21.18">
        <route edges="E13 E2 146417963 146417963-AddedOffRampEdge 158470844#0 158470844#1-AddedOnRampEdge 158470844#1 145852821 145852821.67 145852815 145852815-AddedOffRampEdge 1066957350 145852800#1"/>
    </vehicle>
    <vehicle id="m602-m60_44" depart="21.41">
        <route edges="E4 145868728 145876496 611356040 145876499 158470844#1-AddedOnRampEdge 158470844#1 145852821 145852821.67 145852815 145852815-AddedOffRampEdge 1066957350 145852800#1"/>
    </vehicle>
    <vehicle id="m602-m60_595" depart="21.44">
        <route edges="E5 145868728 145876496 611356040 145876499 158470844#1-AddedOnRampEdge 158470844#1 145852821 145852821.67 145852815 145852815-AddedOffRampEdge 1066957350 145852800#1"/>
    </vehicle>
    <vehicle id="m62-m60-a_304" depart="21.54">
        <route edges="E6 46372495 111538044 296702213 296702213.417 145852821 145852821.67 145852815 145852815-AddedOffRampEdge 1066957350 145852800#1"/>
    </vehicle>
    <vehicle id="m60-north_852" depart="21.75">
        <route edges="E10 E1 146417963 146417963-AddedOffRampEdge 158470844#0 158470844#1-AddedOnRampEdge 158470844#1 145852821 145852821.67 145852815 145852815-AddedOffRampEdge 1066957350 145852800#1"/>
    </vehicle>
    <vehicle id="m60-north_805" depart="21.76">
        <route edges="E10 E1 146417963 146417963-AddedOffRampEdge 158470844#0 158470844#1-AddedOnRampEdge 158470844#1 145852821 145852821.67 145852815 145852815-AddedOffRampEdge 1066957350 145852800#1"/>
    </vehicle>
    <vehicle id="m602-m60_631" depart="21.87">
        <route edges="E3 145868728 145876496 611356040 145876499 158470844#1-AddedOnRampEdge 158470844#1 145852821 145852821.67 145852815 145852815-AddedOffRampEdge 1066957350 145852800#1"/>
    </vehicle>
    <vehicle id="m602-m60_865" depart="22.16">
        <route edges="E4 145868728 145876496 611356040 145876499 158470844#1-AddedOnRampEdge 158470844#1 145852821 145852821.67 145852815 145852815-AddedOffRampEdge 1066957350 145852800#1"/>
    </vehicle>
    <vehicle id="m602-m60_388" depart="22.29">
        <route edges="E5 145868728 145876496 611356040 145876499 158470844#1-AddedOnRampEdge 158470844#1 145852821 145852821.67 145852815 145852815-AddedOffRampEdge 1066957350 145852800#1"/>
    </vehicle>
    <vehicle id="m602-m60_989" depart="22.31">
        <route edges="E4 145868728 145876496 611356040 145876499 158470844#1-AddedOnRampEdge 158470844#1 145852821 145852821.67 145852815 145852815-AddedOffRampEdge 1066957350 145852800#1"/>
    </vehicle>
    <vehicle id="m60-north_493" depart="22.43">
        <route edges="E14 E2 146417963 146417963-AddedOffRampEdge 158470844#0 158470844#1-AddedOnRampEdge 158470844#1 145852821 145852821.67 145852815 145852815-AddedOffRampEdge 1066957350 145852800#1"/>
    </vehicle>
    <vehicle id="m62-m60-a_374" depart="22.44">
        <route edges="E6 46372495 111538044 296702213 296702213.417 145852821 145852821.67 145852815 145852815-AddedOffRampEdge 1066957350 145852800#1"/>
    </vehicle>
    <vehicle id="m60-north_21" depart="22.48">