<?xml version="1.0" encoding="UTF-8"?>
<routes xmlns:xsi="http://www.w3.org/2001/XMLSchema-instance" xsi:noNamespaceSchemaLocation="http://sumo.dlr.de/xsd/routes_file.xsd">
    <vehicle id="994" depart="1.18">
        <route edges="E10 E1 146417963 146417963-AddedOffRampEdge 158470844#0 158470844#1-AddedOnRampEdge 158470844#1 145852821 145852815 145852815-AddedOffRampEdge 1066957350 145852800#1"/>
    </vehicle>
    <vehicle id="198" depart="1.61">
        <route edges="E9 E1 146417963 146417963-AddedOffRampEdge 158470844#0 158470844#1-AddedOnRampEdge 158470844#1 145852821 145852815 145852815-AddedOffRampEdge 1066957350 145852800#1"/>
    </vehicle>
    <vehicle id="783" depart="1.69">
        <route edges="E6 46372495 111538044 296702213 145852821 145852815 145852815-AddedOffRampEdge 1066957350 145852800#1"/>
    </vehicle>
    <vehicle id="490" depart="1.73">
        <route edges="E13 E2 146417963 146417963-AddedOffRampEdge 158470844#0 158470844#1-AddedOnRampEdge 158470844#1 145852821 145852815 145852815-AddedOffRampEdge 1066957350 145852800#1"/>
    </vehicle>
    <vehicle id="351" depart="1.88">
        <route edges="E6 46372495 111538044 296702213 145852821 145852815 145852815-AddedOffRampEdge 1066957350 145852800#1"/>
    </vehicle>
    <vehicle id="427" depart="2.14">
        <route edges="E14 E2 146417963 146417963-AddedOffRampEdge 158470844#0 158470844#1-AddedOnRampEdge 158470844#1 145852821 145852815 145852815-AddedOffRampEdge 1066957350 145852800#1"/>
    </vehicle>
    <vehicle id="1056" depart="2.31">
        <route edges="E3 145868728 145876496 611356040 145876499 158470844#1-AddedOnRampEdge 158470844#1 145852821 145852815 145852815-AddedOffRampEdge 1066957350 145852800#1"/>
    </vehicle>
    <vehicle id="471" depart="2.46">
        <route edges="E13 E2 146417963 146417963-AddedOffRampEdge 158470844#0 158470844#1-AddedOnRampEdge 158470844#1 145852821 145852815 145852815-AddedOffRampEdge 145852856"/>
    </vehicle>
    <vehicle id="423" depart="2.54">
        <route edges="E13 E2 146417963 146417963-AddedOffRampEdge 158470844#0 158470844#1-AddedOnRampEdge 158470844#1 145852821 145852815 145852815-AddedOffRampEdge 1066957350 145852800#1"/>
    </vehicle>
    <vehicle id="175" depart="2.57">
        <route edges="E9 E1 146417963 146417963-AddedOffRampEdge 158470844#0 158470844#1-AddedOnRampEdge 158470844#1 145852821 145852815 145852815-AddedOffRampEdge 145852856"/>
    </vehicle>
    <vehicle id="700" depart="2.64">
        <route edges="E3 145868728 145876496 611356040 145876499 158470844#1-AddedOnRampEdge 158470844#1 145852821 145852815 145852815-AddedOffRampEdge 1066957350 145852800#1"/>
    </vehicle>
    <vehicle id="1104" depart="2.84">
        <route edges="E3 145868728 145876496 611356040 145876499 158470844#1-AddedOnRampEdge 158470844#1 145852821 145852815 145852815-AddedOffRampEdge 1066957350 145852800#1"/>
    </vehicle>
    <vehicle id="881" depart="2.95">
        <route edges="E5 145868728 145876496 611356040 145876499 158470844#1-AddedOnRampEdge 158470844#1 145852821 145852815 145852815-AddedOffRampEdge 1066957350 145852800#1"/>
    </vehicle>
    <vehicle id="286" depart="3.0">
        <route edges="E12 E0 146417963 146417963-AddedOffRampEdge 158470844#0 158470844#1-AddedOnRampEdge 158470844#1 145852821 145852815 145852815-AddedOffRampEdge 1066957350 145852800#1"/>
    </vehicle>
    <vehicle id="811" depart="3.06">
        <route edges="E8 46372495 111538044 296702213 145852821 145852815 145852815-AddedOffRampEdge 1066957350 145852800#1"/>
    </vehicle>
    <vehicle id="151" depart="3.11">
        <route edges="E3 145868728 145876496 611356040 145876499 158470844#1-AddedOnRampEdge 158470844#1 145852821 145852815 145852815-AddedOffRampEdge 1066957350 145852800#1"/>
    </vehicle>
    <vehicle id="989" depart="3.13">
        <route edges="E13 E2 146417963 146417963-AddedOffRampEdge 158470844#0 158470844#1-AddedOnRampEdge 158470844#1 145852821 145852815 145852815-AddedOffRampEdge 1066957350 145852800#1"/>
    </vehicle>
    <vehicle id="321" depart="3.15">
        <route edges="E6 46372495 111538044 296702213 145852821 145852815 145852815-AddedOffRampEdge 1066957350 145852800#1"/>
    </vehicle>
    <vehicle id="1094" depart="3.2">
        <route edges="E7 46372495 111538044 296702213 145852821 145852815 145852815-AddedOffRampEdge 1066957350 145852800#1"/>
    </vehicle>
    <vehicle id="1086" depart="3.23">
        <route edges="E12 E0 146417963 146417963-AddedOffRampEdge 158470844#0 158470844#1-AddedOnRampEdge 158470844#1 145852821 145852815 145852815-AddedOffRampEdge 145852856"/>
    </vehicle>
    <vehicle id="566" depart="3.32">
        <route edges="E4 145868728 145876496 611356040 145876499 158470844#1-AddedOnRampEdge 158470844#1 145852821 145852815 145852815-AddedOffRampEdge 1066957350 145852800#1"/>
    </vehicle>
    <vehicle id="982" depart="3.68">
        <route edges="E11 E0 146417963 146417963-AddedOffRampEdge 158470844#0 158470844#1-AddedOnRampEdge 158470844#1 145852821 145852815 145852815-AddedOffRampEdge 145852856"/>
    </vehicle>
    <vehicle id="415" depart="3.71">
        <route edges="E8 46372495 111538044 296702213 145852821 145852815 145852815-AddedOffRampEdge 1066957350 145852800#1"/>
    </vehicle>
    <vehicle id="93" depart="3.72">
        <route edges="E5 145868728 145876496 611356040 145876499 158470844#1-AddedOnRampEdge 158470844#1 145852821 145852815 145852815-AddedOffRampEdge 1066957350 145852800#1"/>
    </vehicle>
    <vehicle id="67" depart="3.79">
        <route edges="E9 E1 146417963 146417963-AddedOffRampEdge 158470844#0 158470844#1-AddedOnRampEdge 158470844#1 145852821 145852815 145852815-AddedOffRampEdge 1066957350 145852800#1"/>
    </vehicle>
    <vehicle id="35" depart="3.98">
        <route edges="E12 E0 146417963 146417963-AddedOffRampEdge 158470844#0 158470844#1-AddedOnRampEdge 158470844#1 145852821 145852815 145852815-AddedOffRampEdge 1066957350 145852800#1"/>
    </vehicle>
    <vehicle id="522" depart="4.11">
        <route edges="E8 46372495 111538044 296702213 145852821 145852815 145852815-AddedOffRampEdge 1066957350 145852800#1"/>
    </vehicle>
    <vehicle id="68" depart="4.48">
        <route edges="E7 46372495 111538044 296702213 145852821 145852815 145852815-AddedOffRampEdge 1066957350 145852800#1"/>
    </vehicle>
    <vehicle id="1064" depart="4.71">
        <route edges="E14 E2 146417963 146417963-AddedOffRampEdge 158470844#0 158470844#1-AddedOnRampEdge 158470844#1 145852821 145852815 145852815-AddedOffRampEdge 1066957350 145852800#1"/>
    </vehicle>
    <vehicle id="383" depart="5.3">
        <route edges="E3 145868728 145876496 611356040 145876499 158470844#1-AddedOnRampEdge 158470844#1 145852821 145852815 145852815-AddedOffRampEdge 1066957350 145852800#1"/>
    </vehicle>
    <vehicle id="1102" depart="5.37">
        <route edges="E11 E0 146417963 146417963-AddedOffRampEdge 158470844#0 158470844#1-AddedOnRampEdge 158470844#1 145852821 145852815 145852815-AddedOffRampEdge 1066957350 145852800#1"/>
    </vehicle>
    <vehicle id="557" depart="5.39">
        <route edges="E4 145868728 145876496 611356040 145876499 158470844#1-AddedOnRampEdge 158470844#1 145852821 145852815 145852815-AddedOffRampEdge 1066957350 145852800#1"/>
    </vehicle>
    <vehicle id="1069" depart="5.54">
        <route edges="E6 46372495 111538044 296702213 145852821 145852815 145852815-AddedOffRampEdge 1066957350 145852800#1"/>
    </vehicle>
    <vehicle id="130" depart="5.91">
        <route edges="E5 145868728 145876496 611356040 145876499 158470844#1-AddedOnRampEdge 158470844#1 145852821 145852815 145852815-AddedOffRampEdge 1066957350 145852800#1"/>
    </vehicle>
    <vehicle id="112" depart="5.92">
        <route edges="E12 E0 146417963 146417963-AddedOffRampEdge 158470844#0 158470844#1-AddedOnRampEdge 158470844#1 145852821 145852815 145852815-AddedOffRampEdge 1066957350 145852800#1"/>
    </vehicle>
    <vehicle id="592" depart="5.92">
        <route edges="E4 145868728 145876496 611356040 145876499 158470844#1-AddedOnRampEdge 158470844#1 145852821 145852815 145852815-AddedOffRampEdge 1066957350 145852800#1"/>
    </vehicle>
    <vehicle id="129" depart="6.21">
        <route edges="E12 E0 146417963 146417963-AddedOffRampEdge 158470844#0 158470844#1-AddedOnRampEdge 158470844#1 145852821 145852815 145852815-AddedOffRampEdge 145852856"/>
    </vehicle>
    <vehicle id="1130" depart="6.27">
        <route edges="E12 E0 146417963 146417963-AddedOffRampEdge 158470844#0 158470844#1-AddedOnRampEdge 158470844#1 145852821 145852815 145852815-AddedOffRampEdge 1066957350 145852800#1"/>
    </vehicle>
    <vehicle id="88" depart="6.64">
        <route edges="E4 145868728 145876496 611356040 145876499 158470844#1-AddedOnRampEdge 158470844#1 145852821 145852815 145852815-AddedOffRampEdge 1066957350 145852800#1"/>
    </vehicle>
    <vehicle id="796" depart="6.7">
        <route edges="E13 E2 146417963 146417963-AddedOffRampEdge 158470844#0 158470844#1-AddedOnRampEdge 158470844#1 145852821 145852815 145852815-AddedOffRampEdge 1066957350 145852800#1"/>
    </vehicle>
    <vehicle id="714" depart="6.72">
        <route edges="E12 E0 146417963 146417963-AddedOffRampEdge 158470844#0 158470844#1-AddedOnRampEdge 158470844#1 145852821 145852815 145852815-AddedOffRampEdge 1066957350 145852800#1"/>
    </vehicle>
    <vehicle id="884" depart="7.05">
        <route edges="E11 E0 146417963 146417963-AddedOffRampEdge 158470844#0 158470844#1-AddedOnRampEdge 158470844#1 145852821 145852815 145852815-AddedOffRampEdge 1066957350 145852800#1"/>
    </vehicle>
    <vehicle id="745" depart="7.21">
        <route edges="E10 E1 146417963 146417963-AddedOffRampEdge 158470844#0 158470844#1-AddedOnRampEdge 158470844#1 145852821 145852815 145852815-AddedOffRampEdge 1066957350 145852800#1"/>
    </vehicle>
    <vehicle id="954" depart="7.66">
        <route edges="E8 46372495 111538044 296702213 145852821 145852815 145852815-AddedOffRampEdge 1066957350 145852800#1"/>
    </vehicle>
    <vehicle id="932" depart="7.92">
        <route edges="E9 E1 146417963 146417963-AddedOffRampEdge 158470844#0 158470844#1-AddedOnRampEdge 158470844#1 145852821 145852815 145852815-AddedOffRampEdge 1066957350 145852800#1"/>
    </vehicle>
    <vehicle id="875" depart="7.94">
        <route edges="E7 46372495 111538044 296702213 145852821 145852815 145852815-AddedOffRampEdge 1066957350 145852800#1"/>
    </vehicle>
    <vehicle id="758" depart="7.96">
        <route edges="E8 46372495 111538044 296702213 145852821 145852815 145852815-AddedOffRampEdge 1066957350 145852800#1"/>
    </vehicle>
    <vehicle id="927" depart="8.03">
        <route edges="E12 E0 146417963 146417963-AddedOffRampEdge 158470844#0 158470844#1-AddedOnRampEdge 158470844#1 145852821 145852815 145852815-AddedOffRampEdge 145852856"/>
    </vehicle>
    <vehicle id="238" depart="8.08">
        <route edges="E9 E1 146417963 146417963-AddedOffRampEdge 158470844#0 158470844#1-AddedOnRampEdge 158470844#1 145852821 145852815 145852815-AddedOffRampEdge 145852856"/>
    </vehicle>
    <vehicle id="375" depart="8.13">
        <route edges="E13 E2 146417963 146417963-AddedOffRampEdge 158470844#0 158470844#1-AddedOnRampEdge 158470844#1 145852821 145852815 145852815-AddedOffRampEdge 145852856"/>
    </vehicle>
    <vehicle id="397" depart="8.22">
        <route edges="E5 145868728 145876496 611356040 145876499 158470844#1-AddedOnRampEdge 158470844#1 145852821 145852815 145852815-AddedOffRampEdge 1066957350 145852800#1"/>
    </vehicle>
    <vehicle id="1147" depart="8.22">
        <route edges="E3 145868728 145876496 611356040 145876499 158470844#1-AddedOnRampEdge 158470844#1 145852821 145852815 145852815-AddedOffRampEdge 1066957350 145852800#1"/>
    </vehicle>
    <vehicle id="870" depart="8.29">
        <route edges="E4 145868728 145876496 611356040 145876499 158470844#1-AddedOnRampEdge 158470844#1 145852821 145852815 145852815-AddedOffRampEdge 1066957350 145852800#1"/>
    </vehicle>
    <vehicle id="260" depart="8.34">
        <route edges="E14 E2 146417963 146417963-AddedOffRampEdge 158470844#0 158470844#1-AddedOnRampEdge 158470844#1 145852821 145852815 145852815-AddedOffRampEdge 1066957350 145852800#1"/>
    </vehicle>
    <vehicle id="683" depart="8.44">
        <route edges="E7 46372495 111538044 296702213 145852821 145852815 145852815-AddedOffRampEdge 1066957350 145852800#1"/>
    </vehicle>
    <vehicle id="1149" depart="8.49">
        <route edges="E11 E0 146417963 146417963-AddedOffRampEdge 158470844#0 158470844#1-AddedOnRampEdge 158470844#1 145852821 145852815 145852815-AddedOffRampEdge 1066957350 145852800#1"/>
    </vehicle>
    <vehicle id="1089" depart="8.5">
        <route edges="E11 E0 146417963 146417963-AddedOffRampEdge 158470844#0 158470844#1-AddedOnRampEdge 158470844#1 145852821 145852815 145852815-AddedOffRampEdge 1066957350 145852800#1"/>
    </vehicle>
    <vehicle id="841" depart="8.58">
        <route edges="E3 145868728 145876496 611356040 145876499 158470844#1-AddedOnRampEdge 158470844#1 145852821 145852815 145852815-AddedOffRampEdge 1066957350 145852800#1"/>
    </vehicle>
    <vehicle id="892" depart="8.65">
        <route edges="E13 E2 146417963 146417963-AddedOffRampEdge 158470844#0 158470844#1-AddedOnRampEdge 158470844#1 145852821 145852815 145852815-AddedOffRampEdge 145852856"/>
    </vehicle>
    <vehicle id="419" depart="8.74">
        <route edges="E11 E0 146417963 146417963-AddedOffRampEdge 158470844#0 158470844#1-AddedOnRampEdge 158470844#1 145852821 145852815 145852815-AddedOffRampEdge 1066957350 145852800#1"/>
    </vehicle>
    <vehicle id="379" depart="9.21">
        <route edges="E10 E1 146417963 146417963-AddedOffRampEdge 158470844#0 158470844#1-AddedOnRampEdge 158470844#1 145852821 145852815 145852815-AddedOffRampEdge 1066957350 145852800#1"/>
    </vehicle>
    <vehicle id="791" depart="9.39">
        <route edges="E8 46372495 111538044 296702213 145852821 145852815 145852815-AddedOffRampEdge 1066957350 145852800#1"/>
    </vehicle>
    <vehicle id="551" depart="9.68">
        <route edges="E5 145868728 145876496 611356040 145876499 158470844#1-AddedOnRampEdge 158470844#1 145852821 145852815 145852815-AddedOffRampEdge 1066957350 145852800#1"/>
    </vehicle>
    <vehicle id="1182" depart="9.77">
        <route edges="E7 46372495 111538044 296702213 145852821 145852815 145852815-AddedOffRampEdge 1066957350 145852800#1"/>
    </vehicle>
    <vehicle id="628" depart="9.88">
        <route edges="E7 46372495 111538044 296702213 145852821 145852815 145852815-AddedOffRampEdge 1066957350 145852800#1"/>
    </vehicle>
    <vehicle id="1121" depart="9.89">
        <route edges="E11 E0 146417963 146417963-AddedOffRampEdge 158470844#0 158470844#1-AddedOnRampEdge 158470844#1 145852821 145852815 145852815-AddedOffRampEdge 1066957350 145852800#1"/>
    </vehicle>
    <vehicle id="217" depart="10.04">
        <route edges="E8 46372495 111538044 296702213 145852821 145852815 145852815-AddedOffRampEdge 1066957350 145852800#1"/>
    </vehicle>
    <vehicle id="1156" depart="10.19">
        <route edges="E3 145868728 145876496 611356040 145876499 158470844#1-AddedOnRampEdge 158470844#1 145852821 145852815 145852815-AddedOffRampEdge 1066957350 145852800#1"/>
    </vehicle>
    <vehicle id="1081" depart="10.53">
        <route edges="E12 E0 146417963 146417963-AddedOffRampEdge 158470844#0 158470844#1-AddedOnRampEdge 158470844#1 145852821 145852815 145852815-AddedOffRampEdge 1066957350 145852800#1"/>
    </vehicle>
    <vehicle id="14" depart="10.6">
        <route edges="E5 145868728 145876496 611356040 145876499 158470844#1-AddedOnRampEdge 158470844#1 145852821 145852815 145852815-AddedOffRampEdge 1066957350 145852800#1"/>
    </vehicle>
    <vehicle id="373" depart="10.73">
        <route edges="E6 46372495 111538044 296702213 145852821 145852815 145852815-AddedOffRampEdge 1066957350 145852800#1"/>
    </vehicle>
    <vehicle id="560" depart="11.03">
        <route edges="E11 E0 146417963 146417963-AddedOffRampEdge 158470844#0 158470844#1-AddedOnRampEdge 158470844#1 145852821 145852815 145852815-AddedOffRampEdge 1066957350 145852800#1"/>
    </vehicle>
    <vehicle id="575" depart="11.03">
        <route edges="E9 E1 146417963 146417963-AddedOffRampEdge 158470844#0 158470844#1-AddedOnRampEdge 158470844#1 145852821 145852815 145852815-AddedOffRampEdge 1066957350 145852800#1"/>
    </vehicle>
    <vehicle id="679" depart="11.1">
        <route edges="E13 E2 146417963 146417963-AddedOffRampEdge 158470844#0 158470844#1-AddedOnRampEdge 158470844#1 145852821 145852815 145852815-AddedOffRampEdge 1066957350 145852800#1"/>
    </vehicle>
    <vehicle id="505" depart="11.25">
        <route edges="E5 145868728 145876496 611356040 145876499 158470844#1-AddedOnRampEdge 158470844#1 145852821 145852815 145852815-AddedOffRampEdge 1066957350 145852800#1"/>
    </vehicle>
    <vehicle id="902" depart="11.44">
        <route edges="E9 E1 146417963 146417963-AddedOffRampEdge 158470844#0 158470844#1-AddedOnRampEdge 158470844#1 145852821 145852815 145852815-AddedOffRampEdge 145852856"/>
    </vehicle>
    <vehicle id="455" depart="11.49">
        <route edges="E11 E0 146417963 146417963-AddedOffRampEdge 158470844#0 158470844#1-AddedOnRampEdge 158470844#1 145852821 145852815 145852815-AddedOffRampEdge 1066957350 145852800#1"/>
    </vehicle>
    <vehicle id="579" depart="11.8">
        <route edges="E8 46372495 111538044 296702213 145852821 145852815 145852815-AddedOffRampEdge 1066957350 145852800#1"/>
    </vehicle>
    <vehicle id="467" depart="11.87">
        <route edges="E10 E1 146417963 146417963-AddedOffRampEdge 158470844#0 158470844#1-AddedOnRampEdge 158470844#1 145852821 145852815 145852815-AddedOffRampEdge 145852856"/>
    </vehicle>
    <vehicle id="648" depart="12.11">
        <route edges="E9 E1 146417963 146417963-AddedOffRampEdge 158470844#0 158470844#1-AddedOnRampEdge 158470844#1 145852821 145852815 145852815-AddedOffRampEdge 1066957350 145852800#1"/>
    </vehicle>
    <vehicle id="1178" depart="12.22">
        <route edges="E14 E2 146417963 146417963-AddedOffRampEdge 158470844#0 158470844#1-AddedOnRampEdge 158470844#1 145852821 145852815 145852815-AddedOffRampEdge 1066957350 145852800#1"/>
    </vehicle>
    <vehicle id="135" depart="12.28">
        <route edges="E11 E0 146417963 146417963-AddedOffRampEdge 158470844#0 158470844#1-AddedOnRampEdge 158470844#1 145852821 145852815 145852815-AddedOffRampEdge 1066957350 145852800#1"/>
    </vehicle>
    <vehicle id="691" depart="12.43">
        <route edges="E5 145868728 145876496 611356040 145876499 158470844#1-AddedOnRampEdge 158470844#1 145852821 145852815 145852815-AddedOffRampEdge 1066957350 145852800#1"/>
    </vehicle>
    <vehicle id="1142" depart="12.78">
        <route edges="E14 E2 146417963 146417963-AddedOffRampEdge 158470844#0 158470844#1-AddedOnRampEdge 158470844#1 145852821 145852815 145852815-AddedOffRampEdge 1066957350 145852800#1"/>
    </vehicle>
    <vehicle id="739" depart="12.87">
        <route edges="E8 46372495 111538044 296702213 145852821 145852815 145852815-AddedOffRampEdge 1066957350 145852800#1"/>
    </vehicle>
    <vehicle id="436" depart="12.95">
        <route edges="E10 E1 146417963 146417963-AddedOffRampEdge 158470844#0 158470844#1-AddedOnRampEdge 158470844#1 145852821 145852815 145852815-AddedOffRampEdge 145852856"/>
    </vehicle>
    <vehicle id="504" depart="13.0">
        <route edges="E8 46372495 111538044 296702213 145852821 145852815 145852815-AddedOffRampEdge 1066957350 145852800#1"/>
    </vehicle>
    <vehicle id="103" depart="13.33">
        <route edges="E5 145868728 145876496 611356040 145876499 158470844#1-AddedOnRampEdge 158470844#1 145852821 145852815 145852815-AddedOffRampEdge 1066957350 145852800#1"/>
    </vehicle>
    <vehicle id="545" depart="14.08">
        <route edges="E5 145868728 145876496 611356040 145876499 158470844#1-AddedOnRampEdge 158470844#1 145852821 145852815 145852815-AddedOffRampEdge 1066957350 145852800#1"/>
    </vehicle>
    <vehicle id="442" depart="14.14">
        <route edges="E4 145868728 145876496 611356040 145876499 158470844#1-AddedOnRampEdge 158470844#1 145852821 145852815 145852815-AddedOffRampEdge 1066957350 145852800#1"/>
    </vehicle>
    <vehicle id="540" depart="14.32">
        <route edges="E5 145868728 145876496 611356040 145876499 158470844#1-AddedOnRampEdge 158470844#1 145852821 145852815 145852815-AddedOffRampEdge 1066957350 145852800#1"/>
    </vehicle>
    <vehicle id="611" depart="14.34">
        <route edges="E7 46372495 111538044 296702213 145852821 145852815 145852815-AddedOffRampEdge 1066957350 145852800#1"/>
    </vehicle>
    <vehicle id="381" depart="14.36">
        <route edges="E9 E1 146417963 146417963-AddedOffRampEdge 158470844#0 158470844#1-AddedOnRampEdge 158470844#1 145852821 145852815 145852815-AddedOffRampEdge 1066957350 145852800#1"/>
    </vehicle>
    <vehicle id="821" depart="14.48">
        <route edges="E8 46372495 111538044 296702213 145852821 145852815 145852815-AddedOffRampEdge 1066957350 145852800#1"/>
    </vehicle>
    <vehicle id="246" depart="14.56">
        <route edges="E13 E2 146417963 146417963-AddedOffRampEdge 158470844#0 158470844#1-AddedOnRampEdge 158470844#1 145852821 145852815 145852815-AddedOffRampEdge 1066957350 145852800#1"/>
    </vehicle>
    <vehicle id="369" depart="15.19">
        <route edges="E11 E0 146417963 146417963-AddedOffRampEdge 158470844#0 158470844#1-AddedOnRampEdge 158470844#1 145852821 145852815 145852815-AddedOffRampEdge 1066957350 145852800#1"/>
    </vehicle>
    <vehicle id="850" depart="15.31">
        <route edges="E11 E0 146417963 146417963-AddedOffRampEdge 158470844#0 158470844#1-AddedOnRampEdge 158470844#1 145852821 145852815 145852815-AddedOffRampEdge 145852856"/>
    </vehicle>
    <vehicle id="712" depart="15.42">
        <route edges="E14 E2 146417963 146417963-AddedOffRampEdge 158470844#0 158470844#1-AddedOnRampEdge 158470844#1 145852821 145852815 145852815-AddedOffRampEdge 1066957350 145852800#1"/>
    </vehicle>
    <vehicle id="835" depart="15.54">
        <route edges="E3 145868728 145876496 611356040 145876499 158470844#1-AddedOnRampEdge 158470844#1 145852821 145852815 145852815-AddedOffRampEdge 1066957350 145852800#1"/>
    </vehicle>
    <vehicle id="231" depart="15.9">
        <route edges="E10 E1 146417963 146417963-AddedOffRampEdge 158470844#0 158470844#1-AddedOnRampEdge 158470844#1 145852821 145852815 145852815-AddedOffRampEdge 1066957350 145852800#1"/>
    </vehicle>
    <vehicle id="662" depart="16.09">
        <route edges="E12 E0 146417963 146417963-AddedOffRampEdge 158470844#0 158470844#1-AddedOnRampEdge 158470844#1 145852821 145852815 145852815-AddedOffRampEdge 145852856"/>
    </vehicle>
    <vehicle id="428" depart="16.54">
        <route edges="E4 145868728 145876496 611356040 145876499 158470844#1-AddedOnRampEdge 158470844#1 145852821 145852815 145852815-AddedOffRampEdge 1066957350 145852800#1"/>
    </vehicle>
    <vehicle id="966" depart="16.65">
        <route edges="E14 E2 146417963 146417963-AddedOffRampEdge 158470844#0 158470844#1-AddedOnRampEdge 158470844#1 145852821 145852815 145852815-AddedOffRampEdge 1066957350 145852800#1"/>
    </vehicle>
    <vehicle id="1168" depart="16.9">
        <route edges="E12 E0 146417963 146417963-AddedOffRampEdge 158470844#0 158470844#1-AddedOnRampEdge 158470844#1 145852821 145852815 145852815-AddedOffRampEdge 1066957350 145852800#1"/>
    </vehicle>
    <vehicle id="475" depart="17.32">
        <route edges="E14 E2 146417963 146417963-AddedOffRampEdge 158470844#0 158470844#1-AddedOnRampEdge 158470844#1 145852821 145852815 145852815-AddedOffRampEdge 1066957350 145852800#1"/>
    </vehicle>
    <vehicle id="389" depart="17.5">
        <route edges="E4 145868728 145876496 611356040 145876499 158470844#1-AddedOnRampEdge 158470844#1 145852821 145852815 145852815-AddedOffRampEdge 1066957350 145852800#1"/>
    </vehicle>
    <vehicle id="1183" depart="17.64">
        <route edges="E13 E2 146417963 146417963-AddedOffRampEdge 158470844#0 158470844#1-AddedOnRampEdge 158470844#1 145852821 145852815 145852815-AddedOffRampEdge 1066957350 145852800#1"/>
    </vehicle>
    <vehicle id="705" depart="17.92">
        <route edges="E12 E0 146417963 146417963-AddedOffRampEdge 158470844#0 158470844#1-AddedOnRampEdge 158470844#1 145852821 145852815 145852815-AddedOffRampEdge 1066957350 145852800#1"/>
    </vehicle>
    <vehicle id="354" depart="17.99">
        <route edges="E3 145868728 145876496 611356040 145876499 158470844#1-AddedOnRampEdge 158470844#1 145852821 145852815 145852815-AddedOffRampEdge 1066957350 145852800#1"/>
    </vehicle>
    <vehicle id="412" depart="18.41">
        <route edges="E14 E2 146417963 146417963-AddedOffRampEdge 158470844#0 158470844#1-AddedOnRampEdge 158470844#1 145852821 145852815 145852815-AddedOffRampEdge 1066957350 145852800#1"/>
    </vehicle>
    <vehicle id="1090" depart="18.73">
        <route edges="E7 46372495 111538044 296702213 145852821 145852815 145852815-AddedOffRampEdge 1066957350 145852800#1"/>
    </vehicle>
    <vehicle id="939" depart="18.85">
        <route edges="E8 46372495 111538044 296702213 145852821 145852815 145852815-AddedOffRampEdge 1066957350 145852800#1"/>
    </vehicle>
    <vehicle id="308" depart="19.18">
        <route edges="E12 E0 146417963 146417963-AddedOffRampEdge 158470844#0 158470844#1-AddedOnRampEdge 158470844#1 145852821 145852815 145852815-AddedOffRampEdge 1066957350 145852800#1"/>
    </vehicle>
    <vehicle id="1146" depart="19.32">
        <route edges="E9 E1 146417963 146417963-AddedOffRampEdge 158470844#0 158470844#1-AddedOnRampEdge 158470844#1 145852821 145852815 145852815-AddedOffRampEdge 1066957350 145852800#1"/>
    </vehicle>
    <vehicle id="646" depart="19.55">
        <route edges="E4 145868728 145876496 611356040 145876499 158470844#1-AddedOnRampEdge 158470844#1 145852821 145852815 145852815-AddedOffRampEdge 1066957350 145852800#1"/>
    </vehicle>
    <vehicle id="256" depart="19.58">
        <route edges="E7 46372495 111538044 296702213 145852821 145852815 145852815-AddedOffRampEdge 1066957350 145852800#1"/>
    </vehicle>
    <vehicle id="650" depart="19.69">
        <route edges="E11 E0 146417963 146417963-AddedOffRampEdge 158470844#0 158470844#1-AddedOnRampEdge 158470844#1 145852821 145852815 145852815-AddedOffRampEdge 1066957350 145852800#1"/>
    </vehicle>
    <vehicle id="236" depart="19.74">
        <route edges="E11 E0 146417963 146417963-AddedOffRampEdge 158470844#0 158470844#1-AddedOnRampEdge 158470844#1 145852821 145852815 145852815-AddedOffRampEdge 145852856"/>
    </vehicle>
    <vehicle id="633" depart="19.75">
        <route edges="E7 46372495 111538044 296702213 145852821 145852815 145852815-AddedOffRampEdge 1066957350 145852800#1"/>
    </vehicle>
    <vehicle id="730" depart="19.9">
        <route edges="E9 E1 146417963 146417963-AddedOffRampEdge 158470844#0 158470844#1-AddedOnRampEdge 158470844#1 145852821 145852815 145852815-AddedOffRampEdge 1066957350 145852800#1"/>
    </vehicle>
    <vehicle id="929" depart="19.96">
        <route edges="E7 46372495 111538044 296702213 145852821 145852815 145852815-AddedOffRampEdge 1066957350 145852800#1"/>
    </vehicle>
    <vehicle id="1136" depart="19.97">
        <route edges="E4 145868728 145876496 611356040 145876499 158470844#1-AddedOnRampEdge 158470844#1 145852821 145852815 145852815-AddedOffRampEdge 1066957350 145852800#1"/>
    </vehicle>
    <vehicle id="110" depart="20.47">
        <route edges="E11 E0 146417963 146417963-AddedOffRampEdge 158470844#0 158470844#1-AddedOnRampEdge 158470844#1 145852821 145852815 145852815-AddedOffRampEdge 145852856"/>
    </vehicle>
    <vehicle id="382" depart="20.49">
        <route edges="E6 46372495 111538044 296702213 145852821 145852815 145852815-AddedOffRampEdge 1066957350 145852800#1"/>
    </vehicle>
    <vehicle id="327" depart="20.65">
        <route edges="E12 E0 146417963 146417963-AddedOffRampEdge 158470844#0 158470844#1-AddedOnRampEdge 158470844#1 145852821 145852815 145852815-AddedOffRampEdge 1066957350 145852800#1"/>
    </vehicle>
    <vehicle id="1024" depart="20.72">
        <route edges="E12 E0 146417963 146417963-AddedOffRampEdge 158470844#0 158470844#1-AddedOnRampEdge 158470844#1 145852821 145852815 145852815-AddedOffRampEdge 145852856"/>
    </vehicle>
    <vehicle id="934" depart="21.11">
        <route edges="E9 E1 146417963 146417963-AddedOffRampEdge 158470844#0 158470844#1-AddedOnRampEdge 158470844#1 145852821 145852815 145852815-AddedOffRampEdge 1066957350 145852800#1"/>
    </vehicle>
    <vehicle id="583" depart="21.22">
        <route edges="E10 E1 146417963 146417963-AddedOffRampEdge 158470844#0 158470844#1-AddedOnRampEdge 158470844#1 145852821 145852815 145852815-AddedOffRampEdge 145852856"/>
    </vehicle>
    <vehicle id="45" depart="21.25">
        <route edges="E12 E0 146417963 146417963-AddedOffRampEdge 158470844#0 158470844#1-AddedOnRampEdge 158470844#1 145852821 145852815 145852815-AddedOffRampEdge 145852856"/>
    </vehicle>
    <vehicle id="44" depart="21.31">
        <route edges="E13 E2 146417963 146417963-AddedOffRampEdge 158470844#0 158470844#1-AddedOnRampEdge 158470844#1 145852821 145852815 145852815-AddedOffRampEdge 1066957350 145852800#1"/>
    </vehicle>
    <vehicle id="839" depart="21.85">
        <route edges="E14 E2 146417963 146417963-AddedOffRampEdge 158470844#0 158470844#1-AddedOnRampEdge 158470844#1 145852821 145852815 145852815-AddedOffRampEdge 1066957350 145852800#1"/>
    </vehicle>
    <vehicle id="672" depart="21.97">
        <route edges="E11 E0 146417963 146417963-AddedOffRampEdge 158470844#0 158470844#1-AddedOnRampEdge 158470844#1 145852821 145852815 145852815-AddedOffRampEdge 1066957350 145852800#1"/>
    </vehicle>
    <vehicle id="1059" depart="22.01">