<?xml version="1.0" encoding="UTF-8"?>
<routes xmlns:xsi="http://www.w3.org/2001/XMLSchema-instance" xsi:noNamespaceSchemaLocation="http://sumo.dlr.de/xsd/routes_file.xsd">
    <vehicle id="m60-north_400" depart="1.31">
        <route edges="E14 E2 146417963 146417963-AddedOffRampEdge 158470844#0 158470844#1-AddedOnRampEdge 158470844#1 145852821 145852821.67 145852815 145852815-AddedOffRampEdge 1066957350 145852800#1"/>
    </vehicle>
    <vehicle id="m60-north_12" depart="1.34">
        <route edges="E10 E1 146417963 146417963-AddedOffRampEdge 158470844#0 158470844#1-AddedOnRampEdge 158470844#1 145852821 145852821.67 145852815 145852815-AddedOffRampEdge 1066957350 145852800#1"/>
    </vehicle>
    <vehicle id="m62-m60-a_145" depart="1.38">
        <route edges="E7 46372495 111538044 296702213 296702213.417 145852821 145852821.67 145852815 145852815-AddedOffRampEdge 1066957350 145852800#1"/>
    </vehicle>
    <vehicle id="m60-north_628" depart="1.38">
        <route edges="E14 E2 146417963 146417963-AddedOffRampEdge 158470844#0 158470844#1-AddedOnRampEdge 158470844#1 145852821 145852821.67 145852815 145852815-AddedOffRampEdge 1066957350 145852800#1"/>
    </vehicle>
    <vehicle id="m62-m60-b_839" depart="1.48">
        <route edges="E7 46372495 111538044 296702213 E15 145852821.67 145852815 145852815-AddedOffRampEdge 1066957350 145852800#1"/>
    </vehicle>
    <vehicle id="m602-m60_746" depart="1.62">
        <route edges="E3 145868728 145876496 611356040 145876499 158470844#1-AddedOnRampEdge 158470844#1 145852821 145852821.67 145852815 145852815-AddedOffRampEdge 1066957350 145852800#1"/>
    </vehicle>
    <vehicle id="m62-m60-b_65" depart="1.72">
        <route edges="E6 46372495 111538044 296702213 E15 145852821.67 145852815 145852815-AddedOffRampEdge 1066957350 145852800#1"/>
    </vehicle>
    <vehicle id="m60-m62_635" depart="1.91">
        <route edges="E14 E2 146417963 146417963-AddedOffRampEdge 145876507 145876507.29 145876507-AddedOffRampEdge 166118952 230600243-AddedOnRampEdge 230600243"/>
    </vehicle>
    <vehicle id="m60-north_698" depart="2.02">
        <route edges="E13 E2 146417963 146417963-AddedOffRampEdge 158470844#0 158470844#1-AddedOnRampEdge 158470844#1 145852821 145852821.67 145852815 145852815-AddedOffRampEdge 1066957350 145852800#1"/>
    </vehicle>
    <vehicle id="m60-m62_19" depart="2.08">
        <route edges="E10 E1 146417963 146417963-AddedOffRampEdge 145876507 145876507.29 145876507-AddedOffRampEdge 166118952 230600243-AddedOnRampEdge 230600243"/>
    </vehicle>
    <vehicle id="m60-north_56" depart="2.09">
        <route edges="E11 E0 146417963 146417963-AddedOffRampEdge 158470844#0 158470844#1-AddedOnRampEdge 158470844#1 145852821 145852821.67 145852815 145852815-AddedOffRampEdge 1066957350 145852800#1"/>
    </vehicle>
    <vehicle id="m60-north_542" depart="2.35">
        <route edges="E11 E0 146417963 146417963-AddedOffRampEdge 158470844#0 158470844#1-AddedOnRampEdge 158470844#1 145852821 145852821.67 145852815 145852815-AddedOffRampEdge 1066957350 145852800#1"/>
    </vehicle>
    <vehicle id="m60-north_793" depart="2.37">
        <route edges="E9 E1 146417963 146417963-AddedOffRampEdge 158470844#0 158470844#1-AddedOnRampEdge 158470844#1 145852821 145852821.67 145852815 145852815-AddedOffRampEdge 1066957350 145852800#1"/>
    </vehicle>
    <vehicle id="m602-m60_242" depart="2.43">
        <route edges="E4 145868728 145876496 611356040 145876499 158470844#1-AddedOnRampEdge 158470844#1 145852821 145852821.67 145852815 145852815-AddedOffRampEdge 1066957350 145852800#1"/>
    </vehicle>
    <vehicle id="m60-north_932" depart="2.5">
        <route edges="E14 E2 146417963 146417963-AddedOffRampEdge 158470844#0 158470844#1-AddedOnRampEdge 158470844#1 145852821 145852821.67 145852815 145852815-AddedOffRampEdge 1066957350 145852800#1"/>
    </vehicle>
    <vehicle id="m60-worsley_552" depart="2.71">
        <route edges="E12 E0 146417963 146417963-AddedOffRampEdge 158470844#0 158470844#1-AddedOnRampEdge 158470844#1 145852821 145852821.67 145852815 145852815-AddedOffRampEdge 145852856"/>
    </vehicle>
    <vehicle id="m602-m60_965" depart="2.72">
        <route edges="E4 145868728 145876496 611356040 145876499 158470844#1-AddedOnRampEdge 158470844#1 145852821 145852821.67 145852815 145852815-AddedOffRampEdge 1066957350 145852800#1"/>
    </vehicle>
    <vehicle id="m62-m60-b_387" depart="2.93">
        <route edges="E7 46372495 111538044 296702213 E15 145852821.67 145852815 145852815-AddedOffRampEdge 1066957350 145852800#1"/>
    </vehicle>
    <vehicle id="m60-north_634" depart="3.25">
        <route edges="E12 E0 146417963 146417963-AddedOffRampEdge 158470844#0 158470844#1-AddedOnRampEdge 158470844#1 145852821 145852821.67 145852815 145852815-AddedOffRampEdge 1066957350 145852800#1"/>
    </vehicle>
    <vehicle id="m602-m60_818" depart="3.25">
        <route edges="E5 145868728 145876496 611356040 145876499 158470844#1-AddedOnRampEdge 158470844#1 145852821 145852821.67 145852815 145852815-AddedOffRampEdge 1066957350 145852800#1"/>
    </vehicle>
    <vehicle id="m602-m60_545" depart="3.57">
        <route edges="E5 145868728 145876496 611356040 145876499 158470844#1-AddedOnRampEdge 158470844#1 145852821 145852821.67 145852815 145852815-AddedOffRampEdge 1066957350 145852800#1"/>
    </vehicle>
    <vehicle id="m62-m60-b_558" depart="3.59">
        <route edges="E6 46372495 111538044 296702213 E15 145852821.67 145852815 145852815-AddedOffRampEdge 1066957350 145852800#1"/>
    </vehicle>
    <vehicle id="m62-m60-b_13" depart="3.62">
        <route edges="E7 46372495 111538044 296702213 E15 145852821.67 145852815 145852815-AddedOffRampEdge 1066957350 145852800#1"/>
    </vehicle>
    <vehicle id="m602-m60_155" depart="3.7">
        <route edges="E3 145868728 145876496 611356040 145876499 158470844#1-AddedOnRampEdge 158470844#1 145852821 145852821.67 145852815 145852815-AddedOffRampEdge 1066957350 145852800#1"/>
    </vehicle>
    <vehicle id="m60-north_389" depart="3.71">
        <route edges="E11 E0 146417963 146417963-AddedOffRampEdge 158470844#0 158470844#1-AddedOnRampEdge 158470844#1 145852821 145852821.67 145852815 145852815-AddedOffRampEdge 1066957350 145852800#1"/>
    </vehicle>
    <vehicle id="m602-m60_73" depart="3.76">
        <route edges="E4 145868728 145876496 611356040 145876499 158470844#1-AddedOnRampEdge 158470844#1 145852821 145852821.67 145852815 145852815-AddedOffRampEdge 1066957350 145852800#1"/>
    </vehicle>
    <vehicle id="m60-m62_163" depart="4.03">
        <route edges="E10 E1 146417963 146417963-AddedOffRampEdge 145876507 145876507.29 145876507-AddedOffRampEdge 166118952 230600243-AddedOnRampEdge 230600243"/>
    </vehicle>
    <vehicle id="m602-m60_35" depart="4.09">
        <route edges="E5 145868728 145876496 611356040 145876499 158470844#1-AddedOnRampEdge 158470844#1 145852821 145852821.67 145852815 145852815-AddedOffRampEdge 1066957350 145852800#1"/>
    </vehicle>
    <vehicle id="m60-north_311" depart="4.17">
        <route edges="E13 E2 146417963 146417963-AddedOffRampEdge 158470844#0 158470844#1-AddedOnRampEdge 158470844#1 145852821 145852821.67 145852815 145852815-AddedOffRampEdge 1066957350 145852800#1"/>
    </vehicle>
    <vehicle id="m60-north_349" depart="4.17">
        <route edges="E12 E0 146417963 146417963-AddedOffRampEdge 158470844#0 158470844#1-AddedOnRampEdge 158470844#1 145852821 145852821.67 145852815 145852815-AddedOffRampEdge 1066957350 145852800#1"/>
    </vehicle>
    <vehicle id="m602-m60_725" depart="4.2">
        <route edges="E3 145868728 145876496 611356040 145876499 158470844#1-AddedOnRampEdge 158470844#1 145852821 145852821.67 145852815 145852815-AddedOffRampEdge 1066957350 145852800#1"/>
    </vehicle>
    <vehicle id="m602-m60_869" depart="4.22">
        <route edges="E5 145868728 145876496 611356040 145876499 158470844#1-AddedOnRampEdge 158470844#1 145852821 145852821.67 145852815 145852815-AddedOffRampEdge 1066957350 145852800#1"/>
    </vehicle>
    <vehicle id="m602-m60_215" depart="4.27">
        <route edges="E4 145868728 145876496 611356040 145876499 158470844#1-AddedOnRampEdge 158470844#1 145852821 145852821.67 145852815 145852815-AddedOffRampEdge 1066957350 145852800#1"/>
    </vehicle>
    <vehicle id="m602-m60_276" depart="4.36">
        <route edges="E4 145868728 145876496 611356040 145876499 158470844#1-AddedOnRampEdge 158470844#1 145852821 145852821.67 145852815 145852815-AddedOffRampEdge 1066957350 145852800#1"/>
    </vehicle>
    <vehicle id="m60-m602_28" depart="4.47">
        <route edges="E13 E2 146417963 146417963-AddedOffRampEdge 145876507 145876507.29 145876507-AddedOffRampEdge 145876504 1050880328-AddedOnRampEdge 1050880328 145868725-AddedOnRampEdge 145868725"/>
    </vehicle>
    <vehicle id="m602-m60_252" depart="4.52">
        <route edges="E5 145868728 145876496 611356040 145876499 158470844#1-AddedOnRampEdge 158470844#1 145852821 145852821.67 145852815 145852815-AddedOffRampEdge 1066957350 145852800#1"/>
    </vehicle>
    <vehicle id="m602-m60_729" depart="4.52">
        <route edges="E4 145868728 145876496 611356040 145876499 158470844#1-AddedOnRampEdge 158470844#1 145852821 145852821.67 145852815 145852815-AddedOffRampEdge 1066957350 145852800#1"/>
    </vehicle>
    <vehicle id="m60-north_805" depart="4.66">
        <route edges="E14 E2 146417963 146417963-AddedOffRampEdge 158470844#0 158470844#1-AddedOnRampEdge 158470844#1 145852821 145852821.67 145852815 145852815-AddedOffRampEdge 1066957350 145852800#1"/>
    </vehicle>
    <vehicle id="m60-m602_610" depart="4.76">
        <route edges="E9 E1 146417963 146417963-AddedOffRampEdge 145876507 145876507.29 145876507-AddedOffRampEdge 145876504 1050880328-AddedOnRampEdge 1050880328 145868725-AddedOnRampEdge 145868725"/>
    </vehicle>
    <vehicle id="m60-worsley_825" depart="4.83">
        <route edges="E9 E1 146417963 146417963-AddedOffRampEdge 158470844#0 158470844#1-AddedOnRampEdge 158470844#1 145852821 145852821.67 145852815 145852815-AddedOffRampEdge 145852856"/>
    </vehicle>
    <vehicle id="m60-north_468" depart="5.02">
        <route edges="E14 E2 146417963 146417963-AddedOffRampEdge 158470844#0 158470844#1-AddedOnRampEdge 158470844#1 145852821 145852821.67 145852815 145852815-AddedOffRampEdge 1066957350 145852800#1"/>
    </vehicle>
    <vehicle id="m60-m62_748" depart="5.07">
        <route edges="E12 E0 146417963 146417963-AddedOffRampEdge 145876507 145876507.29 145876507-AddedOffRampEdge 166118952 230600243-AddedOnRampEdge 230600243"/>
    </vehicle>
    <vehicle id="m60-north_521" depart="5.08">
        <route edges="E9 E1 146417963 146417963-AddedOffRampEdge 158470844#0 158470844#1-AddedOnRampEdge 158470844#1 145852821 145852821.67 145852815 145852815-AddedOffRampEdge 1066957350 145852800#1"/>
    </vehicle>
    <vehicle id="m62-m60-b_416" depart="5.35">
        <route edges="E7 46372495 111538044 296702213 E15 145852821.67 145852815 145852815-AddedOffRampEdge 1066957350 145852800#1"/>
    </vehicle>
    <vehicle id="m62-m60-a_428" depart="5.39">
        <route edges="E8 46372495 111538044 296702213 296702213.417 145852821 145852821.67 145852815 145852815-AddedOffRampEdge 1066957350 145852800#1"/>
    </vehicle>
    <vehicle id="m60-worsley_712" depart="5.47">
        <route edges="E11 E0 146417963 146417963-AddedOffRampEdge 158470844#0 158470844#1-AddedOnRampEdge 158470844#1 145852821 145852821.67 145852815 145852815-AddedOffRampEdge 145852856"/>
    </vehicle>
    <vehicle id="m602-m60_92" depart="5.61">
        <route edges="E3 145868728 145876496 611356040 145876499 158470844#1-AddedOnRampEdge 158470844#1 145852821 145852821.67 145852815 145852815-AddedOffRampEdge 1066957350 145852800#1"/>
    </vehicle>
    <vehicle id="m60-worsley_314" depart="5.73">
        <route edges="E14 E2 146417963 146417963-AddedOffRampEdge 158470844#0 158470844#1-AddedOnRampEdge 158470844#1 145852821 145852821.67 145852815 145852815-AddedOffRampEdge 145852856"/>
    </vehicle>
    <vehicle id="m602-m60_671" depart="5.73">
        <route edges="E4 145868728 145876496 611356040 145876499 158470844#1-AddedOnRampEdge 158470844#1 145852821 145852821.67 145852815 145852815-AddedOffRampEdge 1066957350 145852800#1"/>
    </vehicle>
    <vehicle id="m60-north_423" depart="5.85">
        <route edges="E9 E1 146417963 146417963-AddedOffRampEdge 158470844#0 158470844#1-AddedOnRampEdge 158470844#1 145852821 145852821.67 145852815 145852815-AddedOffRampEdge 1066957350 145852800#1"/>
    </vehicle>
    <vehicle id="m60-north_722" depart="5.85">
        <route edges="E9 E1 146417963 146417963-AddedOffRampEdge 158470844#0 158470844#1-AddedOnRampEdge 158470844#1 145852821 145852821.67 145852815 145852815-AddedOffRampEdge 1066957350 145852800#1"/>
    </vehicle>
    <vehicle id="m602-m60_749" depart="5.91">
        <route edges="E4 145868728 145876496 611356040 145876499 158470844#1-AddedOnRampEdge 158470844#1 145852821 145852821.67 145852815 145852815-AddedOffRampEdge 1066957350 145852800#1"/>
    </vehicle>
    <vehicle id="m62-m60-b_234" depart="5.98">
        <route edges="E6 46372495 111538044 296702213 E15 145852821.67 145852815 145852815-AddedOffRampEdge 1066957350 145852800#1"/>
    </vehicle>
    <vehicle id="m602-m60_522" depart="6.15">
        <route edges="E4 145868728 145876496 611356040 145876499 158470844#1-AddedOnRampEdge 158470844#1 145852821 145852821.67 145852815 145852815-AddedOffRampEdge 1066957350 145852800#1"/>
    </vehicle>
    <vehicle id="m602-m60_900" depart="6.45">
        <route edges="E3 145868728 145876496 611356040 145876499 158470844#1-AddedOnRampEdge 158470844#1 145852821 145852821.67 145852815 145852815-AddedOffRampEdge 1066957350 145852800#1"/>
    </vehicle>
    <vehicle id="m602-m60_94" depart="6.5">
        <route edges="E5 145868728 145876496 611356040 145876499 158470844#1-AddedOnRampEdge 158470844#1 145852821 145852821.67 145852815 145852815-AddedOffRampEdge 1066957350 145852800#1"/>
    </vehicle>
    <vehicle id="m60-worsley_322" depart="6.55">
        <route edges="E12 E0 146417963 146417963-AddedOffRampEdge 158470844#0 158470844#1-AddedOnRampEdge 158470844#1 145852821 145852821.67 145852815 145852815-AddedOffRampEdge 145852856"/>
    </vehicle>
    <vehicle id="m62-m60-b_8" depart="6.6">
        <route edges="E7 46372495 111538044 296702213 E15 145852821.67 145852815 145852815-AddedOffRampEdge 1066957350 145852800#1"/>
    </vehicle>
    <vehicle id="m60-north_125" depart="6.74">
        <route edges="E9 E1 146417963 146417963-AddedOffRampEdge 158470844#0 158470844#1-AddedOnRampEdge 158470844#1 145852821 145852821.67 145852815 145852815-AddedOffRampEdge 1066957350 145852800#1"/>
    </vehicle>
    <vehicle id="m62-m60-a_352" depart="6.8">
        <route edges="E8 46372495 111538044 296702213 296702213.417 145852821 145852821.67 145852815 145852815-AddedOffRampEdge 1066957350 145852800#1"/>
    </vehicle>
    <vehicle id="m602-m60_559" depart="6.84">
        <route edges="E4 145868728 145876496 611356040 145876499 158470844#1-AddedOnRampEdge 158470844#1 145852821 145852821.67 145852815 145852815-AddedOffRampEdge 1066957350 145852800#1"/>
    </vehicle>
    <vehicle id="m62-m60-b_85" depart="6.95">
        <route edges="E7 46372495 111538044 296702213 E15 145852821.67 145852815 145852815-AddedOffRampEdge 1066957350 145852800#1"/>
    </vehicle>
    <vehicle id="m62-m60-a_247" depart="7.0">
        <route edges="E7 46372495 111538044 296702213 296702213.417 145852821 145852821.67 145852815 145852815-AddedOffRampEdge 1066957350 145852800#1"/>
    </vehicle>
    <vehicle id="m602-m60_582" depart="7.1">
        <route edges="E5 145868728 145876496 611356040 145876499 158470844#1-AddedOnRampEdge 158470844#1 145852821 145852821.67 145852815 145852815-AddedOffRampEdge 1066957350 145852800#1"/>
    </vehicle>
    <vehicle id="m62-m60-a_721" depart="7.2">
        <route edges="E6 46372495 111538044 296702213 296702213.417 145852821 145852821.67 145852815 145852815-AddedOffRampEdge 1066957350 145852800#1"/>
    </vehicle>
    <vehicle id="m60-north_738" depart="7.3">
        <route edges="E9 E1 146417963 146417963-AddedOffRampEdge 158470844#0 158470844#1-AddedOnRampEdge 158470844#1 145852821 145852821.67 145852815 145852815-AddedOffRampEdge 1066957350 145852800#1"/>
    </vehicle>
    <vehicle id="m602-m60_259" depart="7.34">
        <route edges="E5 145868728 145876496 611356040 145876499 158470844#1-AddedOnRampEdge 158470844#1 145852821 145852821.67 145852815 145852815-AddedOffRampEdge 1066957350 145852800#1"/>
    </vehicle>
    <vehicle id="m602-m60_824" depart="7.38">
        <route edges="E5 145868728 145876496 611356040 145876499 158470844#1-AddedOnRampEdge 158470844#1 145852821 145852821.67 145852815 145852815-AddedOffRampEdge 1066957350 145852800#1"/>
    </vehicle>
    <vehicle id="m602-m60_131" depart="7.48">
        <route edges="E3 145868728 145876496 611356040 145876499 158470844#1-AddedOnRampEdge 158470844#1 145852821 145852821.67 145852815 145852815-AddedOffRampEdge 1066957350 145852800#1"/>
    </vehicle>
    <vehicle id="m62-m60-a_916" depart="7.61">
        <route edges="E6 46372495 111538044 296702213 296702213.417 145852821 145852821.67 145852815 145852815-AddedOffRampEdge 1066957350 145852800#1"/>
    </vehicle>
    <vehicle id="m60-m602_63" depart="7.74">
        <route edges="E10 E1 146417963 146417963-AddedOffRampEdge 145876507 145876507.29 145876507-AddedOffRampEdge 145876504 1050880328-AddedOnRampEdge 1050880328 145868725-AddedOnRampEdge 145868725"/>
    </vehicle>
    <vehicle id="m602-m60_780" depart="7.8">
        <route edges="E3 145868728 145876496 611356040 145876499 158470844#1-AddedOnRampEdge 158470844#1 145852821 145852821.67 145852815 145852815-AddedOffRampEdge 1066957350 145852800#1"/>
    </vehicle>
    <vehicle id="m60-north_130" depart="7.94">
        <route edges="E9 E1 146417963 146417963-AddedOffRampEdge 158470844#0 158470844#1-AddedOnRampEdge 158470844#1 145852821 145852821.67 145852815 145852815-AddedOffRampEdge 1066957350 145852800#1"/>
    </vehicle>
    <vehicle id="m60-m62_457" depart="7.94">
        <route edges="E11 E0 146417963 146417963-AddedOffRampEdge 145876507 145876507.29 145876507-AddedOffRampEdge 166118952 230600243-AddedOnRampEdge 230600243"/>
    </vehicle>
    <vehicle id="m60-m62_861" depart="8.09">
        <route edges="E11 E0 146417963 146417963-AddedOffRampEdge 145876507 145876507.29 145876507-AddedOffRampEdge 166118952 230600243-AddedOnRampEdge 230600243"/>
    </vehicle>
    <vehicle id="m60-m62_351" depart="8.27">
        <route edges="E10 E1 146417963 146417963-AddedOffRampEdge 145876507 145876507.29 145876507-AddedOffRampEdge 166118952 230600243-AddedOnRampEdge 230600243"/>
    </vehicle>
    <vehicle id="m62-m60-b_926" depart="8.45">
        <route edges="E6 46372495 111538044 296702213 E15 145852821.67 145852815 145852815-AddedOffRampEdge 1066957350 145852800#1"/>
    </vehicle>
    <vehicle id="m60-north_553" depart="8.51">
        <route edges="E12 E0 146417963 146417963-AddedOffRampEdge 158470844#0 158470844#1-AddedOnRampEdge 158470844#1 145852821 145852821.67 145852815 145852815-AddedOffRampEdge 1066957350 145852800#1"/>
    </vehicle>
    <vehicle id="m60-north_436" depart="8.52">
        <route edges="E12 E0 146417963 146417963-AddedOffRampEdge 158470844#0 158470844#1-AddedOnRampEdge 158470844#1 145852821 145852821.67 145852815 145852815-AddedOffRampEdge 1066957350 145852800#1"/>
    </vehicle>
    <vehicle id="m62-m60-a_300" depart="8.67">
        <route edges="E6 46372495 111538044 296702213 296702213.417 145852821 145852821.67 145852815 145852815-AddedOffRampEdge 1066957350 145852800#1"/>
    </vehicle>
    <vehicle id="m62-m60-a_273" depart="8.75">
        <route edges="E8 46372495 111538044 296702213 296702213.417 145852821 145852821.67 145852815 145852815-AddedOffRampEdge 1066957350 145852800#1"/>
    </vehicle>
    <vehicle id="m60-north_64" depart="8.81">
        <route edges="E11 E0 146417963 146417963-AddedOffRampEdge 158470844#0 158470844#1-AddedOnRampEdge 158470844#1 145852821 145852821.67 145852815 145852815-AddedOffRampEdge 1066957350 145852800#1"/>
    </vehicle>
    <vehicle id="m602-m60_432" depart="8.84">
        <route edges="E5 145868728 145876496 611356040 145876499 158470844#1-AddedOnRampEdge 158470844#1 145852821 145852821.67 145852815 145852815-AddedOffRampEdge 1066957350 145852800#1"/>
    </vehicle>
    <vehicle id="m602-m60_337" depart="8.9">
        <route edges="E5 145868728 145876496 611356040 145876499 158470844#1-AddedOnRampEdge 158470844#1 145852821 145852821.67 145852815 145852815-AddedOffRampEdge 1066957350 145852800#1"/>
    </vehicle>
    <vehicle id="m62-m60-b_384" depart="8.92">
        <route edges="E7 46372495 111538044 296702213 E15 145852821.67 145852815 145852815-AddedOffRampEdge 1066957350 145852800#1"/>
    </vehicle>
    <vehicle id="m62-m60-b_451" depart="8.92">
        <route edges="E7 46372495 111538044 296702213 E15 145852821.67 145852815 145852815-AddedOffRampEdge 1066957350 145852800#1"/>
    </vehicle>
    <vehicle id="m60-north_239" depart="9.07">
        <route edges="E11 E0 146417963 146417963-AddedOffRampEdge 158470844#0 158470844#1-AddedOnRampEdge 158470844#1 145852821 145852821.67 145852815 145852815-AddedOffRampEdge 1066957350 145852800#1"/>
    </vehicle>
    <vehicle id="m60-north_539" depart="9.2">
        <route edges="E11 E0 146417963 146417963-AddedOffRampEdge 158470844#0 158470844#1-AddedOnRampEdge 158470844#1 145852821 145852821.67 145852815 145852815-AddedOffRampEdge 1066957350 145852800#1"/>
    </vehicle>
    <vehicle id="m602-m60_649" depart="9.26">
        <route edges="E4 145868728 145876496 611356040 145876499 158470844#1-AddedOnRampEdge 158470844#1 145852821 145852821.67 145852815 145852815-AddedOffRampEdge 1066957350 145852800#1"/>
    </vehicle>
    <vehicle id="m62-m60-b_669" depart="9.31">
        <route edges="E8 46372495 111538044 296702213 E15 145852821.67 145852815 145852815-AddedOffRampEdge 1066957350 145852800#1"/>
    </vehicle>
    <vehicle id="m62-m60-a_967" depart="9.34">
        <route edges="E8 46372495 111538044 296702213 296702213.417 145852821 145852821.67 145852815 145852815-AddedOffRampEdge 1066957350 145852800#1"/>
    </vehicle>
    <vehicle id="m62-m60-a_963" depart="9.42">
        <route edges="E6 46372495 111538044 296702213 296702213.417 145852821 145852821.67 145852815 145852815-AddedOffRampEdge 1066957350 145852800#1"/>
    </vehicle>
    <vehicle id="m602-m60_613" depart="9.49">
        <route edges="E4 145868728 145876496 611356040 145876499 158470844#1-AddedOnRampEdge 158470844#1 145852821 145852821.67 145852815 145852815-AddedOffRampEdge 1066957350 145852800#1"/>
    </vehicle>
    <vehicle id="m60-north_579" depart="9.51">
        <route edges="E11 E0 146417963 146417963-AddedOffRampEdge 158470844#0 158470844#1-AddedOnRampEdge 158470844#1 145852821 145852821.67 145852815 145852815-AddedOffRampEdge 1066957350 145852800#1"/>
    </vehicle>
    <vehicle id="m602-m60_996" depart="9.56">
        <route edges="E4 145868728 145876496 611356040 145876499 158470844#1-AddedOnRampEdge 158470844#1 145852821 145852821.67 145852815 145852815-AddedOffRampEdge 1066957350 145852800#1"/>
    </vehicle>
    <vehicle id="m62-m60-b_693" depart="9.57">
        <route edges="E7 46372495 111538044 296702213 E15 145852821.67 145852815 145852815-AddedOffRampEdge 1066957350 145852800#1"/>
    </vehicle>
    <vehicle id="m602-m60_370" depart="9.66">
        <route edges="E4 145868728 145876496 611356040 145876499 158470844#1-AddedOnRampEdge 158470844#1 145852821 145852821.67 145852815 145852815-AddedOffRampEdge 1066957350 145852800#1"/>
    </vehicle>
    <vehicle id="m60-m62_169" depart="9.82">
        <route edges="E10 E1 146417963 146417963-AddedOffRampEdge 145876507 145876507.29 145876507-AddedOffRampEdge 166118952 230600243-AddedOnRampEdge 230600243"/>
    </vehicle>
    <vehicle id="m60-north_159" depart="9.9">
        <route edges="E11 E0 146417963 146417963-AddedOffRampEdge 158470844#0 158470844#1-AddedOnRampEdge 158470844#1 145852821 145852821.67 145852815 145852815-AddedOffRampEdge 1066957350 145852800#1"/>
    </vehicle>
    <vehicle id="m62-m60-a_543" depart="9.99">
        <route edges="E8 46372495 111538044 296702213 296702213.417 145852821 145852821.67 145852815 145852815-AddedOffRampEdge 1066957350 145852800#1"/>
    </vehicle>
    <vehicle id="m602-m60_883" depart="10.04">
        <route edges="E3 145868728 145876496 611356040 145876499 158470844#1-AddedOnRampEdge 158470844#1 145852821 145852821.67 145852815 145852815-AddedOffRampEdge 1066957350 145852800#1"/>
    </vehicle>
    <vehicle id="m602-m60_791" depart="10.14">
        <route edges="E5 145868728 145876496 611356040 145876499 158470844#1-AddedOnRampEdge 158470844#1 145852821 145852821.67 145852815 145852815-AddedOffRampEdge 1066957350 145852800#1"/>
    </vehicle>
    <vehicle id="m60-north_851" depart="10.16">
        <route edges="E13 E2 146417963 146417963-AddedOffRampEdge 158470844#0 158470844#1-AddedOnRampEdge 158470844#1 145852821 145852821.67 145852815 145852815-AddedOffRampEdge 1066957350 145852800#1"/>
    </vehicle>
    <vehicle id="m60-north_763" depart="10.17">
        <route edges="E11 E0 146417963 146417963-AddedOffRampEdge 158470844#0 158470844#1-AddedOnRampEdge 158470844#1 145852821 145852821.67 145852815 145852815-AddedOffRampEdge 1066957350 145852800#1"/>
    </vehicle>
    <vehicle id="m602-m60_319" depart="10.29">
        <route edges="E4 145868728 145876496 611356040 145876499 158470844#1-AddedOnRampEdge 158470844#1 145852821 145852821.67 145852815 145852815-AddedOffRampEdge 1066957350 145852800#1"/>
    </vehicle>
    <vehicle id="m602-m60_253" depart="10.49">
        <route edges="E4 145868728 145876496 611356040 145876499 158470844#1-AddedOnRampEdge 158470844#1 145852821 145852821.67 145852815 145852815-AddedOffRampEdge 1066957350 145852800#1"/>
    </vehicle>
    <vehicle id="m602-m60_857" depart="10.59">
        <route edges="E5 145868728 145876496 611356040 145876499 158470844#1-AddedOnRampEdge 158470844#1 145852821 145852821.67 145852815 145852815-AddedOffRampEdge 1066957350 145852800#1"/>
    </vehicle>
    <vehicle id="m60-north_548" depart="10.63">
        <route edges="E11 E0 146417963 146417963-AddedOffRampEdge 158470844#0 158470844#1-AddedOnRampEdge 158470844#1 145852821 145852821.67 145852815 145852815-AddedOffRampEdge 1066957350 145852800#1"/>
    </vehicle>
    <vehicle id="m60-north_289" depart="10.67">
        <route edges="E11 E0 146417963 146417963-AddedOffRampEdge 158470844#0 158470844#1-AddedOnRampEdge 158470844#1 145852821 145852821.67 145852815 145852815-AddedOffRampEdge 1066957350 145852800#1"/>
    </vehicle>
    <vehicle id="m62-m60-b_598" depart="10.73">
        <route edges="E7 46372495 111538044 296702213 E15 145852821.67 145852815 145852815-AddedOffRampEdge 1066957350 145852800#1"/>
    </vehicle>
    <vehicle id="m62-m60-b_431" depart="10.84">
        <route edges="E7 46372495 111538044 296702213 E15 145852821.67 145852815 145852815-AddedOffRampEdge 1066957350 145852800#1"/>
    </vehicle>
    <vehicle id="m602-m60_101" depart="10.85">
        <route edges="E4 145868728 145876496 611356040 145876499 158470844#1-AddedOnRampEdge 158470844#1 145852821 145852821.67 145852815 145852815-AddedOffRampEdge 1066957350 145852800#1"/>
    </vehicle>
    <vehicle id="m60-north_776" depart="10.86">
        <route edges="E11 E0 146417963 146417963-AddedOffRampEdge 158470844#0 158470844#1-AddedOnRampEdge 158470844#1 145852821 145852821.67 145852815 145852815-AddedOffRampEdge 1066957350 145852800#1"/>
    </vehicle>
    <vehicle id="m62-m60-b_648" depart="10.95">
        <route edges="E6 46372495 111538044 296702213 E15 145852821.67 145852815 145852815-AddedOffRampEdge 1066957350 145852800#1"/>
    </vehicle>
    <vehicle id="m60-m62_176" depart="10.99">
        <route edges="E10 E1 146417963 146417963-AddedOffRampEdge 145876507 145876507.29 145876507-AddedOffRampEdge 166118952 230600243-AddedOnRampEdge 230600243"/>
    </vehicle>
    <vehicle id="m62-m60-b_144" depart="11.18">
        <route edges="E7 46372495 111538044 296702213 E15 145852821.67 145852815 145852815-AddedOffRampEdge 1066957350 145852800#1"/>
    </vehicle>
    <vehicle id="m602-m60_186" depart="11.22">
        <route edges="E3 145868728 145876496 611356040 145876499 158470844#1-AddedOnRampEdge 158470844#1 145852821 145852821.67 145852815 145852815-AddedOffRampEdge 1066957350 145852800#1"/>
    </vehicle>
    <vehicle id="m60-north_535" depart="11.29">
        <route edges="E12 E0 146417963 146417963-AddedOffRampEdge 158470844#0 158470844#1-AddedOnRampEdge 158470844#1 145852821 145852821.67 145852815 145852815-AddedOffRampEdge 1066957350 145852800#1"/>
    </vehicle>
    <vehicle id="m62-m60-a_897" depart="11.46">
        <route edges="E8 46372495 111538044 296702213 296702213.417 145852821 145852821.67 145852815 145852815-AddedOffRampEdge 1066957350 145852800#1"/>
    </vehicle>
    <vehicle id="m60-worsley_768" depart="11.57">
        <route edges="E10 E1 146417963 146417963-AddedOffRampEdge 158470844#0 158470844#1-AddedOnRampEdge 158470844#1 145852821 145852821.67 145852815 145852815-AddedOffRampEdge 145852856"/>
    </vehicle>
    <vehicle id="m60-north_677" depart="11.6">
        <route edges="E11 E0 146417963 146417963-AddedOffRampEdge 158470844#0 158470844#1-AddedOnRampEdge 158470844#1 145852821 145852821.67 145852815 145852815-AddedOffRampEdge 1066957350 145852800#1"/>
    </vehicle>
    <vehicle id="m60-north_821" depart="11.81">
        <route edges="E12 E0 146417963 146417963-AddedOffRampEdge 158470844#0 158470844#1-AddedOnRampEdge 158470844#1 145852821 145852821.67 145852815 145852815-AddedOffRampEdge 1066957350 145852800#1"/>
    </vehicle>
    <vehicle id="m62-m60-a_121" depart="11.98">
        <route edges="E6 46372495 111538044 296702213 296702213.417 145852821 145852821.67 145852815 145852815-AddedOffRampEdge 1066957350 145852800#1"/>
    </vehicle>