<?xml version="1.0" encoding="UTF-8"?>

<!-- generated on 2024-12-09 13:50:09 by Eclipse SUMO netedit Version 1.21.0
<neteditConfiguration xmlns:xsi="http://www.w3.org/2001/XMLSchema-instance" xsi:noNamespaceSchemaLocation="http://sumo.dlr.de/xsd/neteditConfiguration.xsd">

    <input>
        <sumo-net-file value="C:\Users\mattr\Documents\Git\simulated-eccles-interchange\interchange-variation-2.net.xml"/>
    </input>

    <output>
        <output-file value="C:\Users\mattr\Documents\Git\simulated-eccles-interchange\interchange-variation-2.net.xml"/>
    </output>

    <processing>
        <geometry.min-radius.fix.railways value="false"/>
        <geometry.max-grade.fix value="false"/>
        <offset.disable-normalization value="true"/>
        <lefthand value="0"/>
    </processing>

    <junctions>
        <no-turnarounds value="true"/>
        <junctions.corner-detail value="5"/>
        <junctions.limit-turn-speed value="5.50"/>
        <rectangular-lane-cut value="0"/>
    </junctions>

    <pedestrian>
        <walkingareas value="0"/>
    </pedestrian>

</neteditConfiguration>
-->

<net version="1.20" junctionCornerDetail="5" limitTurnSpeed="5.50" xmlns:xsi="http://www.w3.org/2001/XMLSchema-instance" xsi:noNamespaceSchemaLocation="http://sumo.dlr.de/xsd/net_file.xsd">

    <location netOffset="-540457.17,-5925778.69" convBoundary="-12.34,-90.69,1690.60,2500.40" origBoundary="-2.390327,53.479357,-2.365135,53.501872" projParameter="+proj=utm +zone=30 +ellps=WGS84 +datum=WGS84 +units=m +no_defs"/>

    <type id="highway.motorway" priority="14" numLanes="2" speed="39.44" allow="private emergency authority army vip passenger hov taxi bus coach delivery truck trailer motorcycle evehicle custom1 custom2" oneway="1"/>
    <type id="highway.motorway_link" priority="9" numLanes="1" speed="22.22" allow="private emergency authority army vip passenger hov taxi bus coach delivery truck trailer motorcycle evehicle custom1 custom2" oneway="1"/>

    <edge id=":1050880328-AddedOnRampNode_0" function="internal">
        <lane id=":1050880328-AddedOnRampNode_0_0" index="0" allow="private emergency authority army vip passenger hov taxi bus coach delivery truck trailer motorcycle evehicle custom1 custom2" speed="31.29" length="8.00" shape="1088.76,1027.35 1095.72,1031.29"/>
        <lane id=":1050880328-AddedOnRampNode_0_1" index="1" allow="private emergency authority army vip passenger hov taxi bus coach delivery truck trailer motorcycle evehicle custom1 custom2" speed="31.29" length="8.00" shape="1087.18,1030.13 1094.14,1034.08"/>
    </edge>
    <edge id=":1270490932_0" function="internal">
        <lane id=":1270490932_0_0" index="0" allow="private emergency authority army vip passenger hov taxi bus coach delivery truck trailer motorcycle evehicle custom1 custom2" speed="31.29" length="25.99" shape="474.35,674.57 496.77,687.76"/>
        <lane id=":1270490932_0_1" index="1" allow="private emergency authority army vip passenger hov taxi bus coach delivery truck trailer motorcycle evehicle custom1 custom2" speed="31.29" length="25.99" shape="472.77,677.35 495.15,690.52"/>
    </edge>
    <edge id=":1270490932_2" function="internal">
        <lane id=":1270490932_2_0" index="0" allow="private emergency authority army vip passenger hov taxi bus coach delivery truck trailer motorcycle evehicle custom1 custom2" speed="31.29" length="25.80" shape="471.19,680.13 493.38,693.30"/>
    </edge>
    <edge id=":145852815-AddedOffRampNode_0" function="internal">
        <lane id=":145852815-AddedOffRampNode_0_0" index="0" allow="private emergency authority army vip passenger hov taxi bus coach delivery truck trailer motorcycle evehicle custom1 custom2" speed="31.29" length="8.65" shape="452.10,1676.14 448.71,1683.36"/>
        <lane id=":145852815-AddedOffRampNode_0_1" index="1" allow="private emergency authority army vip passenger hov taxi bus coach delivery truck trailer motorcycle evehicle custom1 custom2" speed="31.29" length="8.65" shape="449.26,1674.65 445.87,1681.88"/>
        <lane id=":145852815-AddedOffRampNode_0_2" index="2" allow="private emergency authority army vip passenger hov taxi bus coach delivery truck trailer motorcycle evehicle custom1 custom2" speed="31.29" length="8.65" shape="446.43,1673.16 443.03,1680.41"/>
        <lane id=":145852815-AddedOffRampNode_0_3" index="3" allow="private emergency authority army vip passenger hov taxi bus coach delivery truck trailer motorcycle evehicle custom1 custom2" speed="31.29" length="8.65" shape="446.43,1673.16 444.90,1675.12 443.30,1676.04 441.71,1676.97 440.19,1678.93"/>
        <lane id=":145852815-AddedOffRampNode_0_4" index="4" allow="private emergency authority army vip passenger hov taxi bus coach delivery truck trailer motorcycle evehicle custom1 custom2" speed="31.29" length="8.65" shape="443.60,1671.67 442.06,1673.63 440.47,1674.56 438.87,1675.49 437.35,1677.46"/>
        <lane id=":145852815-AddedOffRampNode_0_5" index="5" allow="private emergency authority army vip passenger hov taxi bus coach delivery truck trailer motorcycle evehicle custom1 custom2" speed="31.29" length="8.65" shape="443.60,1671.67 441.52,1673.60 439.04,1673.82 436.58,1674.05 434.51,1675.98"/>
    </edge>
    <edge id=":145868725-AddedOnRampNode_0" function="internal">
        <lane id=":145868725-AddedOnRampNode_0_0" index="0" allow="private emergency authority army vip passenger hov taxi bus coach delivery truck trailer motorcycle evehicle custom1 custom2" speed="31.29" length="8.00" shape="1403.01,1183.71 1410.81,1185.49"/>
        <lane id=":145868725-AddedOnRampNode_0_1" index="1" allow="private emergency authority army vip passenger hov taxi bus coach delivery truck trailer motorcycle evehicle custom1 custom2" speed="31.29" length="8.00" shape="1402.30,1186.83 1410.10,1188.61"/>
        <lane id=":145868725-AddedOnRampNode_0_2" index="2" allow="private emergency authority army vip passenger hov taxi bus coach delivery truck trailer motorcycle evehicle custom1 custom2" speed="31.29" length="8.00" shape="1401.59,1189.95 1409.39,1191.73"/>
    </edge>
    <edge id=":145876507-AddedOffRampNode_0" function="internal">
        <lane id=":145876507-AddedOffRampNode_0_0" index="0" allow="private emergency authority army vip passenger hov taxi bus coach delivery truck trailer motorcycle evehicle custom1 custom2" speed="22.35" length="8.92" shape="886.68,652.27 884.99,654.58 885.10,657.13 885.22,659.69 883.53,662.01"/>
        <lane id=":145876507-AddedOffRampNode_0_1" index="1" allow="private emergency authority army vip passenger hov taxi bus coach delivery truck trailer motorcycle evehicle custom1 custom2" speed="22.35" length="8.92" shape="886.68,652.27 884.90,654.04 884.22,655.80 883.54,657.57 881.77,659.34"/>
        <lane id=":145876507-AddedOffRampNode_0_2" index="2" allow="private emergency authority army vip passenger hov taxi bus coach delivery truck trailer motorcycle evehicle custom1 custom2" speed="22.35" length="8.92" shape="886.68,652.27 880.00,656.67"/>
        <lane id=":145876507-AddedOffRampNode_0_3" index="3" allow="private emergency authority army vip passenger hov taxi bus coach delivery truck trailer motorcycle evehicle custom1 custom2" speed="22.35" length="8.92" shape="884.92,649.59 878.24,654.00"/>
    </edge>
    <edge id=":146417963-AddedOffRampNode_0" function="internal">
        <lane id=":146417963-AddedOffRampNode_0_0" index="0" allow="private emergency authority army vip passenger hov taxi bus coach delivery truck trailer motorcycle evehicle custom1 custom2" speed="31.29" length="8.21" shape="947.15,387.99 947.40,390.36 947.95,391.95 948.51,393.54 948.78,395.91"/>
        <lane id=":146417963-AddedOffRampNode_0_1" index="1" allow="private emergency authority army vip passenger hov taxi bus coach delivery truck trailer motorcycle evehicle custom1 custom2" speed="31.29" length="8.21" shape="943.95,387.97 944.20,390.37 944.75,391.96 945.31,393.56 945.58,395.95"/>
        <lane id=":146417963-AddedOffRampNode_0_2" index="2" allow="private emergency authority army vip passenger hov taxi bus coach delivery truck trailer motorcycle evehicle custom1 custom2" speed="31.29" length="8.21" shape="940.75,387.96 941.00,390.37 941.55,391.97 942.11,393.58 942.38,395.98"/>
        <lane id=":146417963-AddedOffRampNode_0_3" index="3" allow="private emergency authority army vip passenger hov taxi bus coach delivery truck trailer motorcycle evehicle custom1 custom2" speed="31.29" length="8.21" shape="940.75,387.96 940.50,390.38 939.95,391.99 939.41,393.60 939.18,396.02"/>
    </edge>
    <edge id=":146417974#1-AddedOnRampNode_0" function="internal">
        <lane id=":146417974#1-AddedOnRampNode_0_0" index="0" allow="private emergency authority army vip passenger hov taxi bus coach delivery truck trailer motorcycle evehicle custom1 custom2" speed="31.29" length="8.00" shape="976.24,439.15 976.20,431.15"/>
    </edge>
    <edge id=":158470844#1-AddedOnRampNode_0" function="internal">
        <lane id=":158470844#1-AddedOnRampNode_0_0" index="0" allow="private emergency authority army vip passenger hov taxi bus coach delivery truck trailer motorcycle evehicle custom1 custom2" speed="31.29" length="0.50" shape="787.08,1191.88 786.93,1192.17"/>
        <lane id=":158470844#1-AddedOnRampNode_0_1" index="1" allow="private emergency authority army vip passenger hov taxi bus coach delivery truck trailer motorcycle evehicle custom1 custom2" speed="31.29" length="0.50" shape="784.27,1190.36 784.06,1190.75"/>
        <lane id=":158470844#1-AddedOnRampNode_0_2" index="2" allow="private emergency authority army vip passenger hov taxi bus coach delivery truck trailer motorcycle evehicle custom1 custom2" speed="31.29" length="0.50" shape="781.45,1188.84 781.20,1189.33"/>
        <lane id=":158470844#1-AddedOnRampNode_0_3" index="3" allow="private emergency authority army vip passenger hov taxi bus coach delivery truck trailer motorcycle evehicle custom1 custom2" speed="31.29" length="0.50" shape="778.63,1187.32 778.33,1187.91"/>
    </edge>
    <edge id=":1591847283_0" function="internal">
        <lane id=":1591847283_0_0" index="0" allow="private emergency authority army vip passenger hov taxi bus coach delivery truck trailer motorcycle evehicle custom1 custom2" speed="31.29" length="21.28" shape="753.73,1253.33 750.43,1258.91 747.88,1262.54 745.12,1266.04 741.18,1271.21"/>
        <lane id=":1591847283_0_1" index="1" allow="private emergency authority army vip passenger hov taxi bus coach delivery truck trailer motorcycle evehicle custom1 custom2" speed="31.29" length="21.28" shape="750.94,1251.77 747.69,1257.24 745.19,1260.81 742.47,1264.24 738.61,1269.32"/>
        <lane id=":1591847283_0_2" index="2" allow="private emergency authority army vip passenger hov taxi bus coach delivery truck trailer motorcycle evehicle custom1 custom2" speed="31.29" length="21.28" shape="748.15,1250.20 744.96,1255.57 742.49,1259.07 739.83,1262.44 736.03,1267.42"/>
        <lane id=":1591847283_0_3" index="3" allow="private emergency authority army vip passenger hov taxi bus coach delivery truck trailer motorcycle evehicle custom1 custom2" speed="31.29" length="21.28" shape="745.36,1248.64 742.23,1253.91 739.80,1257.34 737.18,1260.64 733.45,1265.53"/>
    </edge>
    <edge id=":1591847283_4" function="internal">
        <lane id=":1591847283_4_0" index="0" allow="private emergency authority army vip passenger hov taxi bus coach delivery truck trailer motorcycle evehicle custom1 custom2" speed="31.64" length="12.64" shape="738.71,1254.12 737.72,1257.19 736.86,1259.70 735.61,1262.28 733.45,1265.53"/>
    </edge>
    <edge id=":1591847337_0" function="internal">
        <lane id=":1591847337_0_0" index="0" allow="private emergency authority army vip passenger hov taxi bus coach delivery truck trailer motorcycle evehicle custom1 custom2" speed="31.29" length="0.48" shape="633.97,1423.42 633.47,1424.09"/>
        <lane id=":1591847337_0_1" index="1" allow="private emergency authority army vip passenger hov taxi bus coach delivery truck trailer motorcycle evehicle custom1 custom2" speed="31.29" length="0.48" shape="631.33,1421.60 630.98,1422.08"/>
        <lane id=":1591847337_0_2" index="2" allow="private emergency authority army vip passenger hov taxi bus coach delivery truck trailer motorcycle evehicle custom1 custom2" speed="31.29" length="0.48" shape="628.70,1419.78 628.48,1420.07"/>
        <lane id=":1591847337_0_3" index="3" allow="private emergency authority army vip passenger hov taxi bus coach delivery truck trailer motorcycle evehicle custom1 custom2" speed="31.29" length="0.48" shape="626.07,1417.97 625.99,1418.06"/>
    </edge>
    <edge id=":1591847592_0" function="internal">
        <lane id=":1591847592_0_0" index="0" allow="private emergency authority army vip passenger hov taxi bus coach delivery truck trailer motorcycle evehicle custom1 custom2" speed="31.29" length="2.00" shape="362.53,1976.16 362.51,1975.41 362.49,1974.90 362.51,1974.39 362.59,1973.65"/>
        <lane id=":1591847592_0_1" index="1" allow="private emergency authority army vip passenger hov taxi bus coach delivery truck trailer motorcycle evehicle custom1 custom2" speed="31.29" length="2.00" shape="365.73,1976.08 365.71,1975.49 365.69,1975.08 365.70,1974.67 365.76,1974.08"/>
        <lane id=":1591847592_0_2" index="2" allow="private emergency authority army vip passenger hov taxi bus coach delivery truck trailer motorcycle evehicle custom1 custom2" speed="31.29" length="2.00" shape="368.93,1976.00 368.91,1975.56 368.89,1975.26 368.89,1974.95 368.93,1974.51"/>
    </edge>
    <edge id=":1591847592_3" function="internal">
        <lane id=":1591847592_3_0" index="0" allow="private emergency authority army vip passenger hov taxi bus coach delivery truck trailer motorcycle evehicle custom1 custom2" speed="26.82" length="0.99" shape="372.05,1975.93 372.05,1975.63 372.05,1975.43 372.07,1975.23 372.10,1974.94"/>
    </edge>
    <edge id=":1591849085_0" function="internal">
        <lane id=":1591849085_0_0" index="0" allow="private emergency authority army vip passenger hov taxi bus coach delivery truck trailer motorcycle evehicle custom1 custom2" speed="31.29" length="23.14" shape="432.86,2436.08 444.32,2456.42"/>
        <lane id=":1591849085_0_1" index="1" allow="private emergency authority army vip passenger hov taxi bus coach delivery truck trailer motorcycle evehicle custom1 custom2" speed="31.29" length="23.14" shape="430.08,2437.65 441.47,2457.87"/>
        <lane id=":1591849085_0_2" index="2" allow="private emergency authority army vip passenger hov taxi bus coach delivery truck trailer motorcycle evehicle custom1 custom2" speed="31.29" length="23.14" shape="427.29,2439.22 438.62,2459.32"/>
        <lane id=":1591849085_0_3" index="3" allow="private emergency authority army vip passenger hov taxi bus coach delivery truck trailer motorcycle evehicle custom1 custom2" speed="31.29" length="23.14" shape="424.50,2440.79 435.77,2460.77"/>
    </edge>
    <edge id=":1591849085_4" function="internal">
        <lane id=":1591849085_4_0" index="0" allow="private emergency authority army vip passenger hov taxi bus coach delivery truck trailer motorcycle evehicle custom1 custom2" speed="26.82" length="22.41" shape="421.84,2442.75 424.01,2446.15 426.50,2450.31 429.43,2455.56 432.92,2462.22"/>
    </edge>
    <edge id=":1591971755_0" function="internal">
        <lane id=":1591971755_0_0" index="0" allow="private emergency authority army vip passenger hov taxi bus coach delivery truck trailer motorcycle evehicle custom1 custom2" speed="26.82" length="2.77" shape="863.17,1152.11 863.90,1151.64 864.41,1151.33 864.93,1151.04 865.70,1150.64"/>
        <lane id=":1591971755_0_1" index="1" allow="private emergency authority army vip passenger hov taxi bus coach delivery truck trailer motorcycle evehicle custom1 custom2" speed="26.82" length="2.77" shape="864.91,1154.80 865.56,1154.38 866.01,1154.10 866.48,1153.85 867.16,1153.49"/>
    </edge>
    <edge id=":1591971755_2" function="internal">
        <lane id=":1591971755_2_0" index="0" allow="private emergency authority army vip passenger hov taxi bus coach delivery truck trailer motorcycle evehicle custom1 custom2" speed="26.82" length="2.12" shape="866.65,1157.48 867.22,1157.11 867.61,1156.86 868.01,1156.63 868.61,1156.32"/>
        <lane id=":1591971755_2_1" index="1" allow="private emergency authority army vip passenger hov taxi bus coach delivery truck trailer motorcycle evehicle custom1 custom2" speed="26.82" length="2.12" shape="868.39,1160.17 868.88,1159.85 869.21,1159.63 869.56,1159.43 870.08,1159.17"/>
    </edge>
    <edge id=":1592003797_0" function="internal">
        <lane id=":1592003797_0_0" index="0" allow="private emergency authority army vip passenger hov taxi bus coach delivery truck trailer motorcycle evehicle custom1 custom2" speed="31.29" length="8.07" shape="951.36,489.75 951.85,497.97"/>
        <lane id=":1592003797_0_1" index="1" allow="private emergency authority army vip passenger hov taxi bus coach delivery truck trailer motorcycle evehicle custom1 custom2" speed="31.29" length="8.07" shape="948.16,489.86 948.65,497.92"/>
        <lane id=":1592003797_0_2" index="2" allow="private emergency authority army vip passenger hov taxi bus coach delivery truck trailer motorcycle evehicle custom1 custom2" speed="31.29" length="8.07" shape="944.96,489.98 945.45,497.87"/>
    </edge>
    <edge id=":1592003797_3" function="internal">
        <lane id=":1592003797_3_0" index="0" allow="private emergency authority army vip passenger hov taxi bus coach delivery truck trailer motorcycle evehicle custom1 custom2" speed="26.82" length="9.34" shape="944.96,489.98 944.49,492.50 943.20,493.95 941.65,495.37 940.39,497.79"/>
        <lane id=":1592003797_3_1" index="1" allow="private emergency authority army vip passenger hov taxi bus coach delivery truck trailer motorcycle evehicle custom1 custom2" speed="26.82" length="9.28" shape="941.76,490.09 941.27,492.57 939.94,493.98 938.35,495.36 937.07,497.74"/>
    </edge>
    <edge id=":1592003809_0" function="internal">
        <lane id=":1592003809_0_0" index="0" allow="private emergency authority army vip passenger hov taxi bus coach delivery truck trailer motorcycle evehicle custom1 custom2" speed="31.29" length="81.15" shape="269.89,553.07 197.65,515.52"/>
        <lane id=":1592003809_0_1" index="1" allow="private emergency authority army vip passenger hov taxi bus coach delivery truck trailer motorcycle evehicle custom1 custom2" speed="31.29" length="81.15" shape="271.33,550.20 199.32,512.79"/>
        <lane id=":1592003809_0_2" index="2" allow="private emergency authority army vip passenger hov taxi bus coach delivery truck trailer motorcycle evehicle custom1 custom2" speed="31.29" length="81.15" shape="272.76,547.34 200.99,510.06"/>
    </edge>
    <edge id=":1592003809_3" function="internal">
        <lane id=":1592003809_3_0" index="0" allow="private emergency authority army vip passenger hov taxi bus coach delivery truck trailer motorcycle evehicle custom1 custom2" speed="31.29" length="80.30" shape="274.13,544.42 202.66,507.33"/>
        <lane id=":1592003809_3_1" index="1" allow="private emergency authority army vip passenger hov taxi bus coach delivery truck trailer motorcycle evehicle custom1 custom2" speed="31.29" length="80.30" shape="275.41,541.47 204.33,504.60"/>
    </edge>
    <edge id=":1592003993_0" function="internal">
        <lane id=":1592003993_0_0" index="0" allow="private emergency authority army vip passenger hov taxi bus coach delivery truck trailer motorcycle evehicle custom1 custom2" speed="31.29" length="6.49" shape="1075.78,931.58 1075.44,929.70 1075.53,928.35 1075.56,927.01 1075.05,925.20"/>
    </edge>
    <edge id=":1592003993_1" function="internal">
        <lane id=":1592003993_1_0" index="0" allow="private emergency authority army vip passenger hov taxi bus coach delivery truck trailer motorcycle evehicle custom1 custom2" speed="13.50" length="6.03" shape="1078.84,930.64 1078.42,928.93 1078.39,927.71 1078.60,926.48 1078.92,924.71"/>
    </edge>
    <edge id=":1592004012_0" function="internal">
        <lane id=":1592004012_0_0" index="0" allow="private emergency authority army vip passenger hov taxi bus coach delivery truck trailer motorcycle evehicle custom1 custom2" speed="31.29" length="4.41" shape="1224.72,1098.71 1223.52,1098.04 1222.73,1097.53 1221.97,1096.98 1220.87,1096.15"/>
        <lane id=":1592004012_0_1" index="1" allow="private emergency authority army vip passenger hov taxi bus coach delivery truck trailer motorcycle evehicle custom1 custom2" speed="31.29" length="4.41" shape="1226.26,1095.91 1225.18,1095.30 1224.46,1094.84 1223.77,1094.33 1222.78,1093.58"/>
    </edge>
    <edge id=":1592004012_2" function="internal">
        <lane id=":1592004012_2_0" index="0" allow="private emergency authority army vip passenger hov taxi bus coach delivery truck trailer motorcycle evehicle custom1 custom2" speed="31.29" length="3.61" shape="1227.80,1093.10 1226.87,1092.58 1226.25,1092.18 1225.68,1091.72 1224.88,1091.00"/>
    </edge>
    <edge id=":1596923514_0" function="internal">
        <lane id=":1596923514_0_0" index="0" allow="private emergency authority army vip passenger hov taxi bus coach delivery truck trailer motorcycle evehicle custom1 custom2" speed="31.64" length="8.08" shape="998.09,-13.14 997.07,-10.97 996.34,-9.49 995.74,-7.96 995.13,-5.65"/>
    </edge>
    <edge id=":1596923514_1" function="internal">
        <lane id=":1596923514_1_0" index="0" allow="private emergency authority army vip passenger hov taxi bus coach delivery truck trailer motorcycle evehicle custom1 custom2" speed="31.64" length="8.29" shape="994.60,-14.20 994.14,-11.81 993.49,-10.25 992.74,-8.71 992.01,-6.37"/>
    </edge>
    <edge id=":1596923514_2" function="internal">
        <lane id=":1596923514_2_0" index="0" allow="private emergency authority army vip passenger hov taxi bus coach delivery truck trailer motorcycle evehicle custom1 custom2" speed="30.76" length="9.98" shape="990.56,-16.83 990.65,-13.91 990.32,-11.92 989.69,-9.95 988.89,-7.08"/>
    </edge>
    <edge id=":1596923580_0" function="internal">
        <lane id=":1596923580_0_0" index="0" allow="private emergency authority army vip passenger hov taxi bus coach delivery truck trailer motorcycle evehicle custom1 custom2" speed="31.29" length="2.91" shape="970.88,360.85 970.84,357.95"/>
    </edge>
    <edge id=":1596923580_1" function="internal">
        <lane id=":1596923580_1_0" index="0" allow="private emergency authority army vip passenger hov taxi bus coach delivery truck trailer motorcycle evehicle custom1 custom2" speed="31.29" length="2.67" shape="974.11,360.64 974.04,357.97"/>
    </edge>
    <edge id=":20922412_0" function="internal">
        <lane id=":20922412_0_0" index="0" allow="private emergency authority army vip passenger hov taxi bus coach delivery truck trailer motorcycle evehicle custom1 custom2" speed="26.82" length="3.27" shape="791.45,692.65 788.34,693.07"/>
        <lane id=":20922412_0_1" index="1" allow="private emergency authority army vip passenger hov taxi bus coach delivery truck trailer motorcycle evehicle custom1 custom2" speed="26.82" length="3.27" shape="791.15,689.46 787.78,689.92"/>
    </edge>
    <edge id=":20922412_2" function="internal">
        <lane id=":20922412_2_0" index="0" allow="private emergency authority army vip passenger hov taxi bus coach delivery truck trailer motorcycle evehicle custom1 custom2" speed="26.82" length="3.13" shape="790.86,686.27 787.70,686.53"/>
        <lane id=":20922412_2_1" index="1" allow="private emergency authority army vip passenger hov taxi bus coach delivery truck trailer motorcycle evehicle custom1 custom2" speed="26.82" length="3.13" shape="790.57,683.09 787.48,683.33"/>
    </edge>
    <edge id=":20938580_0" function="internal">
        <lane id=":20938580_0_0" index="0" allow="private emergency authority army vip passenger hov taxi bus coach delivery truck trailer motorcycle evehicle custom1 custom2" speed="31.29" length="9.15" shape="948.46,667.87 949.37,658.80"/>
        <lane id=":20938580_0_1" index="1" allow="private emergency authority army vip passenger hov taxi bus coach delivery truck trailer motorcycle evehicle custom1 custom2" speed="31.29" length="9.15" shape="951.64,668.26 952.55,659.12"/>
    </edge>
    <edge id=":20938580_2" function="internal">
        <lane id=":20938580_2_0" index="0" allow="private emergency authority army vip passenger hov taxi bus coach delivery truck trailer motorcycle evehicle custom1 custom2" speed="31.29" length="10.38" shape="954.82,668.65 956.20,658.36"/>
    </edge>
    <edge id=":230600243-AddedOnRampNode_0" function="internal">
        <lane id=":230600243-AddedOnRampNode_0_0" index="0" allow="private emergency authority army vip passenger hov taxi bus coach delivery truck trailer motorcycle evehicle custom1 custom2" speed="31.29" length="8.13" shape="116.38,466.26 109.58,461.90"/>
        <lane id=":230600243-AddedOnRampNode_0_1" index="1" allow="private emergency authority army vip passenger hov taxi bus coach delivery truck trailer motorcycle evehicle custom1 custom2" speed="31.29" length="8.13" shape="118.04,463.52 111.28,459.19"/>
        <lane id=":230600243-AddedOnRampNode_0_2" index="2" allow="private emergency authority army vip passenger hov taxi bus coach delivery truck trailer motorcycle evehicle custom1 custom2" speed="31.29" length="8.13" shape="119.69,460.78 112.97,456.48"/>
        <lane id=":230600243-AddedOnRampNode_0_3" index="3" allow="private emergency authority army vip passenger hov taxi bus coach delivery truck trailer motorcycle evehicle custom1 custom2" speed="31.29" length="8.13" shape="121.34,458.04 114.67,453.77"/>
        <lane id=":230600243-AddedOnRampNode_0_4" index="4" allow="private emergency authority army vip passenger hov taxi bus coach delivery truck trailer motorcycle evehicle custom1 custom2" speed="31.29" length="8.13" shape="122.99,455.30 120.67,454.46 118.82,454.56 116.98,454.64 114.67,453.77"/>
    </edge>
    <edge id=":28180422-AddedOffRampNode_0" function="internal">
        <lane id=":28180422-AddedOffRampNode_0_0" index="0" allow="private emergency authority army vip passenger hov taxi bus coach delivery truck trailer motorcycle evehicle custom1 custom2" speed="22.35" length="15.72" shape="791.01,1230.56 792.84,1226.17 793.02,1222.70 793.23,1219.24 795.13,1214.89"/>
        <lane id=":28180422-AddedOffRampNode_0_1" index="1" allow="private emergency authority army vip passenger hov taxi bus coach delivery truck trailer motorcycle evehicle custom1 custom2" speed="22.35" length="15.72" shape="791.01,1230.56 793.20,1226.52 794.37,1223.57 795.55,1220.63 797.82,1216.63"/>
        <lane id=":28180422-AddedOffRampNode_0_2" index="2" allow="private emergency authority army vip passenger hov taxi bus coach delivery truck trailer motorcycle evehicle custom1 custom2" speed="22.35" length="15.72" shape="793.73,1232.25 795.91,1228.22 797.07,1225.28 798.25,1222.35 800.50,1218.37"/>
        <lane id=":28180422-AddedOffRampNode_0_3" index="3" allow="private emergency authority army vip passenger hov taxi bus coach delivery truck trailer motorcycle evehicle custom1 custom2" speed="22.35" length="15.72" shape="793.73,1232.25 796.33,1228.50 798.41,1226.15 800.52,1223.81 803.19,1220.11"/>
    </edge>
    <edge id=":298553553_0" function="internal">
        <lane id=":298553553_0_0" index="0" allow="private emergency authority army vip passenger hov taxi bus coach delivery truck trailer motorcycle evehicle custom1 custom2" speed="31.29" length="3.14" shape="976.85,536.71 976.76,535.79 976.72,535.15 976.70,534.51 976.69,533.58"/>
    </edge>
    <edge id=":298553553_1" function="internal">
        <lane id=":298553553_1_0" index="0" allow="private emergency authority army vip passenger hov taxi bus coach delivery truck trailer motorcycle evehicle custom1 custom2" speed="31.29" length="3.13" shape="973.50,536.72 973.49,533.59"/>
    </edge>
    <edge id=":3005116315_0" function="internal">
        <lane id=":3005116315_0_0" index="0" allow="private emergency authority army vip passenger hov taxi bus coach delivery truck trailer motorcycle evehicle custom1 custom2" speed="31.29" length="3.06" shape="505.34,688.22 502.63,686.71"/>
        <lane id=":3005116315_0_1" index="1" allow="private emergency authority army vip passenger hov taxi bus coach delivery truck trailer motorcycle evehicle custom1 custom2" speed="31.29" length="3.06" shape="506.82,685.38 504.19,683.92"/>
    </edge>
    <edge id=":3005116315_2" function="internal">
        <lane id=":3005116315_2_0" index="0" allow="private emergency authority army vip passenger hov taxi bus coach delivery truck trailer motorcycle evehicle custom1 custom2" speed="31.29" length="3.43" shape="507.58,683.92 506.87,683.28 506.66,682.54 506.44,681.80 505.75,681.12"/>
        <lane id=":3005116315_2_1" index="1" allow="private emergency authority army vip passenger hov taxi bus coach delivery truck trailer motorcycle evehicle custom1 custom2" speed="31.29" length="3.43" shape="509.06,681.09 508.37,680.45 508.17,679.72 507.98,678.99 507.31,678.33"/>
    </edge>
    <edge id=":3005116322_0" function="internal">
        <lane id=":3005116322_0_0" index="0" allow="private emergency authority army vip passenger hov taxi bus coach delivery truck trailer motorcycle evehicle custom1 custom2" speed="26.82" length="1.87" shape="665.26,855.99 665.55,856.53 665.72,856.92 665.87,857.32 666.10,857.89"/>
        <lane id=":3005116322_0_1" index="1" allow="private emergency authority army vip passenger hov taxi bus coach delivery truck trailer motorcycle evehicle custom1 custom2" speed="26.82" length="1.87" shape="662.49,857.60 662.73,858.03 662.86,858.35 662.97,858.67 663.14,859.13"/>
    </edge>
    <edge id=":309760545_0" function="internal">