<?xml version="1.0" encoding="UTF-8"?>

<!-- generated on 2024-12-08 20:36:40 by Eclipse SUMO netedit Version 1.21.0
<neteditConfiguration xmlns:xsi="http://www.w3.org/2001/XMLSchema-instance" xsi:noNamespaceSchemaLocation="http://sumo.dlr.de/xsd/neteditConfiguration.xsd">

    <input>
        <sumo-net-file value="C:\Users\mattr\Downloads\motorway4.net.xml"/>
    </input>

    <output>
        <output-file value="C:\Users\mattr\Downloads\motorway4.net.xml"/>
    </output>

    <processing>
        <geometry.min-radius.fix.railways value="false"/>
        <geometry.max-grade.fix value="false"/>
        <offset.disable-normalization value="true"/>
        <lefthand value="0"/>
    </processing>

    <junctions>
        <no-turnarounds value="true"/>
        <junctions.corner-detail value="5"/>
        <junctions.limit-turn-speed value="5.50"/>
        <rectangular-lane-cut value="0"/>
    </junctions>

    <pedestrian>
        <walkingareas value="0"/>
    </pedestrian>

</neteditConfiguration>
-->

<net version="1.20" junctionCornerDetail="5" limitTurnSpeed="5.50" xmlns:xsi="http://www.w3.org/2001/XMLSchema-instance" xsi:noNamespaceSchemaLocation="http://sumo.dlr.de/xsd/net_file.xsd">

    <location netOffset="-540457.17,-5925778.69" convBoundary="0.00,0.00,1664.70,2500.40" origBoundary="-2.390327,53.479357,-2.365135,53.501872" projParameter="+proj=utm +zone=30 +ellps=WGS84 +datum=WGS84 +units=m +no_defs"/>

    <type id="highway.motorway" priority="14" numLanes="2" speed="39.44" allow="private emergency authority army vip passenger hov taxi bus coach delivery truck trailer motorcycle evehicle custom1 custom2" oneway="1"/>
    <type id="highway.motorway_link" priority="9" numLanes="1" speed="22.22" allow="private emergency authority army vip passenger hov taxi bus coach delivery truck trailer motorcycle evehicle custom1 custom2" oneway="1"/>

    <edge id=":1050880328-AddedOnRampNode_0" function="internal">
        <lane id=":1050880328-AddedOnRampNode_0_0" index="0" allow="private emergency authority army vip passenger hov taxi bus coach delivery truck trailer motorcycle evehicle custom1 custom2" speed="31.29" length="8.00" shape="1088.76,1027.35 1095.72,1031.29"/>
        <lane id=":1050880328-AddedOnRampNode_0_1" index="1" allow="private emergency authority army vip passenger hov taxi bus coach delivery truck trailer motorcycle evehicle custom1 custom2" speed="31.29" length="8.00" shape="1087.18,1030.13 1094.14,1034.08"/>
    </edge>
    <edge id=":1270490932_0" function="internal">
        <lane id=":1270490932_0_0" index="0" allow="private emergency authority army vip passenger hov taxi bus coach delivery truck trailer motorcycle evehicle custom1 custom2" speed="31.29" length="25.99" shape="474.35,674.57 496.77,687.76"/>
        <lane id=":1270490932_0_1" index="1" allow="private emergency authority army vip passenger hov taxi bus coach delivery truck trailer motorcycle evehicle custom1 custom2" speed="31.29" length="25.99" shape="472.77,677.35 495.15,690.52"/>
    </edge>
    <edge id=":1270490932_2" function="internal">
        <lane id=":1270490932_2_0" index="0" allow="private emergency authority army vip passenger hov taxi bus coach delivery truck trailer motorcycle evehicle custom1 custom2" speed="31.29" length="25.80" shape="471.19,680.13 493.38,693.30"/>
    </edge>
    <edge id=":145852815-AddedOffRampNode_0" function="internal">
        <lane id=":145852815-AddedOffRampNode_0_0" index="0" allow="private emergency authority army vip passenger hov taxi bus coach delivery truck trailer motorcycle evehicle custom1 custom2" speed="31.29" length="8.61" shape="455.11,1674.58 454.76,1677.43 456.11,1679.61 457.45,1681.78 457.10,1684.63"/>
        <lane id=":145852815-AddedOffRampNode_0_1" index="1" allow="private emergency authority army vip passenger hov taxi bus coach delivery truck trailer motorcycle evehicle custom1 custom2" speed="31.29" length="8.61" shape="455.11,1674.58 454.42,1676.99 454.69,1678.87 454.95,1680.74 454.26,1683.15"/>
        <lane id=":145852815-AddedOffRampNode_0_2" index="2" allow="private emergency authority army vip passenger hov taxi bus coach delivery truck trailer motorcycle evehicle custom1 custom2" speed="31.29" length="8.61" shape="455.11,1674.58 451.42,1681.68"/>
        <lane id=":145852815-AddedOffRampNode_0_3" index="3" allow="private emergency authority army vip passenger hov taxi bus coach delivery truck trailer motorcycle evehicle custom1 custom2" speed="31.29" length="8.61" shape="452.28,1673.10 448.58,1680.20"/>
        <lane id=":145852815-AddedOffRampNode_0_4" index="4" allow="private emergency authority army vip passenger hov taxi bus coach delivery truck trailer motorcycle evehicle custom1 custom2" speed="31.29" length="8.61" shape="449.44,1671.62 445.75,1678.72"/>
        <lane id=":145852815-AddedOffRampNode_0_5" index="5" allow="private emergency authority army vip passenger hov taxi bus coach delivery truck trailer motorcycle evehicle custom1 custom2" speed="31.29" length="8.61" shape="446.60,1670.15 442.91,1677.24"/>
    </edge>
    <edge id=":145868725-AddedOnRampNode_0" function="internal">
        <lane id=":145868725-AddedOnRampNode_0_0" index="0" allow="private emergency authority army vip passenger hov taxi bus coach delivery truck trailer motorcycle evehicle custom1 custom2" speed="31.29" length="8.00" shape="1403.01,1183.71 1410.81,1185.49"/>
        <lane id=":145868725-AddedOnRampNode_0_1" index="1" allow="private emergency authority army vip passenger hov taxi bus coach delivery truck trailer motorcycle evehicle custom1 custom2" speed="31.29" length="8.00" shape="1402.30,1186.83 1410.10,1188.61"/>
        <lane id=":145868725-AddedOnRampNode_0_2" index="2" allow="private emergency authority army vip passenger hov taxi bus coach delivery truck trailer motorcycle evehicle custom1 custom2" speed="31.29" length="8.00" shape="1401.59,1189.95 1409.39,1191.73"/>
    </edge>
    <edge id=":145876507-AddedOffRampNode_0" function="internal">
        <lane id=":145876507-AddedOffRampNode_0_0" index="0" allow="private emergency authority army vip passenger hov taxi bus coach delivery truck trailer motorcycle evehicle custom1 custom2" speed="22.35" length="8.92" shape="886.68,652.27 884.99,654.58 885.10,657.13 885.22,659.69 883.53,662.01"/>
        <lane id=":145876507-AddedOffRampNode_0_1" index="1" allow="private emergency authority army vip passenger hov taxi bus coach delivery truck trailer motorcycle evehicle custom1 custom2" speed="22.35" length="8.92" shape="886.68,652.27 884.90,654.04 884.22,655.80 883.54,657.57 881.77,659.34"/>
        <lane id=":145876507-AddedOffRampNode_0_2" index="2" allow="private emergency authority army vip passenger hov taxi bus coach delivery truck trailer motorcycle evehicle custom1 custom2" speed="22.35" length="8.92" shape="886.68,652.27 880.00,656.67"/>
        <lane id=":145876507-AddedOffRampNode_0_3" index="3" allow="private emergency authority army vip passenger hov taxi bus coach delivery truck trailer motorcycle evehicle custom1 custom2" speed="22.35" length="8.92" shape="884.92,649.59 878.24,654.00"/>
    </edge>
    <edge id=":146417963-AddedOffRampNode_0" function="internal">
        <lane id=":146417963-AddedOffRampNode_0_0" index="0" allow="private emergency authority army vip passenger hov taxi bus coach delivery truck trailer motorcycle evehicle custom1 custom2" speed="31.29" length="8.19" shape="947.15,387.99 947.40,390.36 947.95,391.95 948.51,393.54 948.78,395.91"/>
        <lane id=":146417963-AddedOffRampNode_0_1" index="1" allow="private emergency authority army vip passenger hov taxi bus coach delivery truck trailer motorcycle evehicle custom1 custom2" speed="31.29" length="8.19" shape="947.15,387.99 946.90,390.37 946.35,391.97 945.81,393.56 945.58,395.95"/>
        <lane id=":146417963-AddedOffRampNode_0_2" index="2" allow="private emergency authority army vip passenger hov taxi bus coach delivery truck trailer motorcycle evehicle custom1 custom2" speed="31.29" length="8.19" shape="943.95,387.97 943.70,390.37 943.15,391.98 942.61,393.58 942.38,395.98"/>
        <lane id=":146417963-AddedOffRampNode_0_3" index="3" allow="private emergency authority army vip passenger hov taxi bus coach delivery truck trailer motorcycle evehicle custom1 custom2" speed="31.29" length="8.19" shape="940.75,387.96 940.50,390.38 939.95,391.99 939.41,393.60 939.18,396.02"/>
    </edge>
    <edge id=":146417974#1-AddedOnRampNode_0" function="internal">
        <lane id=":146417974#1-AddedOnRampNode_0_0" index="0" allow="private emergency authority army vip passenger hov taxi bus coach delivery truck trailer motorcycle evehicle custom1 custom2" speed="31.29" length="8.00" shape="976.24,439.15 976.20,431.15"/>
    </edge>
    <edge id=":158470844#1-AddedOnRampNode_0" function="internal">
        <lane id=":158470844#1-AddedOnRampNode_0_0" index="0" allow="private emergency authority army vip passenger hov taxi bus coach delivery truck trailer motorcycle evehicle custom1 custom2" speed="31.29" length="0.36" shape="785.64,1191.18 785.53,1191.40"/>
        <lane id=":158470844#1-AddedOnRampNode_0_1" index="1" allow="private emergency authority army vip passenger hov taxi bus coach delivery truck trailer motorcycle evehicle custom1 custom2" speed="31.29" length="0.36" shape="782.83,1189.66 782.66,1189.98"/>
        <lane id=":158470844#1-AddedOnRampNode_0_2" index="2" allow="private emergency authority army vip passenger hov taxi bus coach delivery truck trailer motorcycle evehicle custom1 custom2" speed="31.29" length="0.36" shape="780.01,1188.14 779.79,1188.56"/>
    </edge>
    <edge id=":1591847283_0" function="internal">
        <lane id=":1591847283_0_0" index="0" allow="private emergency authority army vip passenger hov taxi bus coach delivery truck trailer motorcycle evehicle custom1 custom2" speed="26.82" length="2.99" shape="738.64,1269.29 737.10,1271.92"/>
        <lane id=":1591847283_0_1" index="1" allow="private emergency authority army vip passenger hov taxi bus coach delivery truck trailer motorcycle evehicle custom1 custom2" speed="26.82" length="2.99" shape="735.85,1267.71 734.37,1270.24"/>
    </edge>
    <edge id=":1591847283_2" function="internal">
        <lane id=":1591847283_2_0" index="0" allow="private emergency authority army vip passenger hov taxi bus coach delivery truck trailer motorcycle evehicle custom1 custom2" speed="31.29" length="3.30" shape="746.75,1273.87 746.37,1274.82 746.11,1275.46 745.79,1276.08 745.27,1276.95"/>
        <lane id=":1591847283_2_1" index="1" allow="private emergency authority army vip passenger hov taxi bus coach delivery truck trailer motorcycle evehicle custom1 custom2" speed="31.29" length="3.30" shape="743.94,1272.28 743.58,1273.20 743.34,1273.82 743.04,1274.43 742.55,1275.27"/>
        <lane id=":1591847283_2_2" index="2" allow="private emergency authority army vip passenger hov taxi bus coach delivery truck trailer motorcycle evehicle custom1 custom2" speed="31.29" length="3.30" shape="741.12,1270.69 740.79,1271.58 740.56,1272.19 740.29,1272.78 739.82,1273.59"/>
    </edge>
    <edge id=":1591847337_0" function="internal">
        <lane id=":1591847337_0_0" index="0" allow="private emergency authority army vip passenger hov taxi bus coach delivery truck trailer motorcycle evehicle custom1 custom2" speed="31.29" length="8.25" shape="641.16,1425.07 639.39,1426.77 637.63,1427.33 635.81,1427.84 633.85,1429.39"/>
        <lane id=":1591847337_0_1" index="1" allow="private emergency authority army vip passenger hov taxi bus coach delivery truck trailer motorcycle evehicle custom1 custom2" speed="31.29" length="8.25" shape="638.52,1423.26 636.81,1424.88 635.09,1425.38 633.31,1425.84 631.41,1427.31"/>
        <lane id=":1591847337_0_2" index="2" allow="private emergency authority army vip passenger hov taxi bus coach delivery truck trailer motorcycle evehicle custom1 custom2" speed="31.29" length="8.25" shape="635.89,1421.45 634.22,1422.99 632.55,1423.44 630.82,1423.84 628.97,1425.24"/>
        <lane id=":1591847337_0_3" index="3" allow="private emergency authority army vip passenger hov taxi bus coach delivery truck trailer motorcycle evehicle custom1 custom2" speed="31.29" length="8.25" shape="633.25,1419.64 631.64,1421.10 630.01,1421.49 628.32,1421.84 626.53,1423.17"/>
    </edge>
    <edge id=":1591847592_0" function="internal">
        <lane id=":1591847592_0_0" index="0" allow="private emergency authority army vip passenger hov taxi bus coach delivery truck trailer motorcycle evehicle custom1 custom2" speed="31.29" length="2.00" shape="362.53,1976.16 362.51,1975.41 362.49,1974.90 362.51,1974.39 362.59,1973.65"/>
        <lane id=":1591847592_0_1" index="1" allow="private emergency authority army vip passenger hov taxi bus coach delivery truck trailer motorcycle evehicle custom1 custom2" speed="31.29" length="2.00" shape="365.73,1976.08 365.71,1975.49 365.69,1975.08 365.70,1974.67 365.76,1974.08"/>
        <lane id=":1591847592_0_2" index="2" allow="private emergency authority army vip passenger hov taxi bus coach delivery truck trailer motorcycle evehicle custom1 custom2" speed="31.29" length="2.00" shape="368.93,1976.00 368.91,1975.56 368.89,1975.26 368.89,1974.95 368.93,1974.51"/>
    </edge>
    <edge id=":1591847592_3" function="internal">
        <lane id=":1591847592_3_0" index="0" allow="private emergency authority army vip passenger hov taxi bus coach delivery truck trailer motorcycle evehicle custom1 custom2" speed="26.82" length="0.99" shape="372.05,1975.93 372.05,1975.63 372.05,1975.43 372.07,1975.23 372.10,1974.94"/>
    </edge>
    <edge id=":1591849085_0" function="internal">
        <lane id=":1591849085_0_0" index="0" allow="private emergency authority army vip passenger hov taxi bus coach delivery truck trailer motorcycle evehicle custom1 custom2" speed="31.29" length="23.14" shape="432.86,2436.08 444.32,2456.42"/>
        <lane id=":1591849085_0_1" index="1" allow="private emergency authority army vip passenger hov taxi bus coach delivery truck trailer motorcycle evehicle custom1 custom2" speed="31.29" length="23.14" shape="430.08,2437.65 441.47,2457.87"/>
        <lane id=":1591849085_0_2" index="2" allow="private emergency authority army vip passenger hov taxi bus coach delivery truck trailer motorcycle evehicle custom1 custom2" speed="31.29" length="23.14" shape="427.29,2439.22 438.62,2459.32"/>
        <lane id=":1591849085_0_3" index="3" allow="private emergency authority army vip passenger hov taxi bus coach delivery truck trailer motorcycle evehicle custom1 custom2" speed="31.29" length="23.14" shape="424.50,2440.79 435.77,2460.77"/>
    </edge>
    <edge id=":1591849085_4" function="internal">
        <lane id=":1591849085_4_0" index="0" allow="private emergency authority army vip passenger hov taxi bus coach delivery truck trailer motorcycle evehicle custom1 custom2" speed="26.82" length="22.41" shape="421.84,2442.75 424.01,2446.15 426.50,2450.31 429.43,2455.56 432.92,2462.22"/>
    </edge>
    <edge id=":1591971755_0" function="internal">
        <lane id=":1591971755_0_0" index="0" allow="private emergency authority army vip passenger hov taxi bus coach delivery truck trailer motorcycle evehicle custom1 custom2" speed="26.82" length="2.77" shape="863.17,1152.11 863.90,1151.64 864.41,1151.33 864.93,1151.04 865.70,1150.64"/>
        <lane id=":1591971755_0_1" index="1" allow="private emergency authority army vip passenger hov taxi bus coach delivery truck trailer motorcycle evehicle custom1 custom2" speed="26.82" length="2.77" shape="864.91,1154.80 865.56,1154.38 866.01,1154.10 866.48,1153.85 867.16,1153.49"/>
    </edge>
    <edge id=":1591971755_2" function="internal">
        <lane id=":1591971755_2_0" index="0" allow="private emergency authority army vip passenger hov taxi bus coach delivery truck trailer motorcycle evehicle custom1 custom2" speed="26.82" length="2.12" shape="866.65,1157.48 867.22,1157.11 867.61,1156.86 868.01,1156.63 868.61,1156.32"/>
        <lane id=":1591971755_2_1" index="1" allow="private emergency authority army vip passenger hov taxi bus coach delivery truck trailer motorcycle evehicle custom1 custom2" speed="26.82" length="2.12" shape="868.39,1160.17 868.88,1159.85 869.21,1159.63 869.56,1159.43 870.08,1159.17"/>
    </edge>
    <edge id=":1592003797_0" function="internal">
        <lane id=":1592003797_0_0" index="0" allow="private emergency authority army vip passenger hov taxi bus coach delivery truck trailer motorcycle evehicle custom1 custom2" speed="31.29" length="8.15" shape="949.04,486.21 949.26,488.61 949.79,490.22 950.30,491.83 950.49,494.23"/>
        <lane id=":1592003797_0_1" index="1" allow="private emergency authority army vip passenger hov taxi bus coach delivery truck trailer motorcycle evehicle custom1 custom2" speed="31.29" length="8.15" shape="945.84,486.17 946.06,488.55 946.59,490.15 947.10,491.75 947.29,494.14"/>
        <lane id=":1592003797_0_2" index="2" allow="private emergency authority army vip passenger hov taxi bus coach delivery truck trailer motorcycle evehicle custom1 custom2" speed="31.29" length="8.15" shape="942.64,486.13 942.86,488.50 943.39,490.09 943.90,491.68 944.10,494.05"/>
    </edge>
    <edge id=":1592003797_3" function="internal">
        <lane id=":1592003797_3_0" index="0" allow="private emergency authority army vip passenger hov taxi bus coach delivery truck trailer motorcycle evehicle custom1 custom2" speed="26.82" length="7.92" shape="942.64,486.13 942.60,488.48 942.49,490.09 942.23,491.68 941.76,493.98"/>
        <lane id=":1592003797_3_1" index="1" allow="private emergency authority army vip passenger hov taxi bus coach delivery truck trailer motorcycle evehicle custom1 custom2" speed="26.82" length="7.87" shape="939.44,486.10 939.39,488.43 939.26,490.02 938.99,491.60 938.51,493.89"/>
    </edge>
    <edge id=":1592003809_0" function="internal">
        <lane id=":1592003809_0_0" index="0" allow="private emergency authority army vip passenger hov taxi bus coach delivery truck trailer motorcycle evehicle custom1 custom2" speed="31.29" length="80.95" shape="269.89,553.07 198.00,515.72"/>
        <lane id=":1592003809_0_1" index="1" allow="private emergency authority army vip passenger hov taxi bus coach delivery truck trailer motorcycle evehicle custom1 custom2" speed="31.29" length="80.95" shape="271.33,550.20 199.50,512.89"/>
        <lane id=":1592003809_0_2" index="2" allow="private emergency authority army vip passenger hov taxi bus coach delivery truck trailer motorcycle evehicle custom1 custom2" speed="31.29" length="80.95" shape="272.76,547.34 200.99,510.06"/>
    </edge>
    <edge id=":1592003809_3" function="internal">
        <lane id=":1592003809_3_0" index="0" allow="private emergency authority army vip passenger hov taxi bus coach delivery truck trailer motorcycle evehicle custom1 custom2" speed="31.29" length="80.60" shape="274.13,544.42 202.48,507.23"/>
        <lane id=":1592003809_3_1" index="1" allow="private emergency authority army vip passenger hov taxi bus coach delivery truck trailer motorcycle evehicle custom1 custom2" speed="31.29" length="80.60" shape="275.41,541.47 203.98,504.40"/>
    </edge>
    <edge id=":1592003993_0" function="internal">
        <lane id=":1592003993_0_0" index="0" allow="private emergency authority army vip passenger hov taxi bus coach delivery truck trailer motorcycle evehicle custom1 custom2" speed="31.29" length="6.49" shape="1075.78,931.58 1075.44,929.70 1075.53,928.35 1075.56,927.01 1075.05,925.20"/>
    </edge>
    <edge id=":1592003993_1" function="internal">
        <lane id=":1592003993_1_0" index="0" allow="private emergency authority army vip passenger hov taxi bus coach delivery truck trailer motorcycle evehicle custom1 custom2" speed="13.50" length="6.03" shape="1078.84,930.64 1078.42,928.93 1078.39,927.71 1078.60,926.48 1078.92,924.71"/>
    </edge>
    <edge id=":1592004012_0" function="internal">
        <lane id=":1592004012_0_0" index="0" allow="private emergency authority army vip passenger hov taxi bus coach delivery truck trailer motorcycle evehicle custom1 custom2" speed="31.29" length="4.41" shape="1224.72,1098.71 1223.52,1098.04 1222.73,1097.53 1221.97,1096.98 1220.87,1096.15"/>
        <lane id=":1592004012_0_1" index="1" allow="private emergency authority army vip passenger hov taxi bus coach delivery truck trailer motorcycle evehicle custom1 custom2" speed="31.29" length="4.41" shape="1226.26,1095.91 1225.18,1095.30 1224.46,1094.84 1223.77,1094.33 1222.78,1093.58"/>
    </edge>
    <edge id=":1592004012_2" function="internal">
        <lane id=":1592004012_2_0" index="0" allow="private emergency authority army vip passenger hov taxi bus coach delivery truck trailer motorcycle evehicle custom1 custom2" speed="31.29" length="3.61" shape="1227.80,1093.10 1226.87,1092.58 1226.25,1092.18 1225.68,1091.72 1224.88,1091.00"/>
    </edge>
    <edge id=":1596923580_0" function="internal">
        <lane id=":1596923580_0_0" index="0" allow="private emergency authority army vip passenger hov taxi bus coach delivery truck trailer motorcycle evehicle custom1 custom2" speed="31.29" length="2.91" shape="970.88,360.85 970.84,357.95"/>
    </edge>
    <edge id=":1596923580_1" function="internal">
        <lane id=":1596923580_1_0" index="0" allow="private emergency authority army vip passenger hov taxi bus coach delivery truck trailer motorcycle evehicle custom1 custom2" speed="31.29" length="2.67" shape="974.11,360.64 974.04,357.97"/>
    </edge>
    <edge id=":20922412_0" function="internal">
        <lane id=":20922412_0_0" index="0" allow="private emergency authority army vip passenger hov taxi bus coach delivery truck trailer motorcycle evehicle custom1 custom2" speed="26.82" length="3.27" shape="791.45,692.65 788.34,693.07"/>
        <lane id=":20922412_0_1" index="1" allow="private emergency authority army vip passenger hov taxi bus coach delivery truck trailer motorcycle evehicle custom1 custom2" speed="26.82" length="3.27" shape="791.15,689.46 787.78,689.92"/>
    </edge>
    <edge id=":20922412_2" function="internal">
        <lane id=":20922412_2_0" index="0" allow="private emergency authority army vip passenger hov taxi bus coach delivery truck trailer motorcycle evehicle custom1 custom2" speed="26.82" length="3.13" shape="790.86,686.27 787.70,686.53"/>
        <lane id=":20922412_2_1" index="1" allow="private emergency authority army vip passenger hov taxi bus coach delivery truck trailer motorcycle evehicle custom1 custom2" speed="26.82" length="3.13" shape="790.57,683.09 787.48,683.33"/>
    </edge>
    <edge id=":20938580_0" function="internal">
        <lane id=":20938580_0_0" index="0" allow="private emergency authority army vip passenger hov taxi bus coach delivery truck trailer motorcycle evehicle custom1 custom2" speed="31.29" length="49.60" shape="949.10,661.15 953.71,611.68"/>
        <lane id=":20938580_0_1" index="1" allow="private emergency authority army vip passenger hov taxi bus coach delivery truck trailer motorcycle evehicle custom1 custom2" speed="31.29" length="49.60" shape="952.28,661.52 956.89,612.13"/>
        <lane id=":20938580_0_2" index="2" allow="private emergency authority army vip passenger hov taxi bus coach delivery truck trailer motorcycle evehicle custom1 custom2" speed="31.29" length="49.60" shape="955.46,661.89 960.08,612.58"/>
    </edge>
    <edge id=":20938580_3" function="internal">
        <lane id=":20938580_3_0" index="0" allow="private emergency authority army vip passenger hov taxi bus coach delivery truck trailer motorcycle evehicle custom1 custom2" speed="31.29" length="49.27" shape="955.46,661.89 963.49,613.28"/>
    </edge>
    <edge id=":230600243-AddedOnRampNode_0" function="internal">
        <lane id=":230600243-AddedOnRampNode_0_0" index="0" allow="private emergency authority army vip passenger hov taxi bus coach delivery truck trailer motorcycle evehicle custom1 custom2" speed="31.29" length="8.00" shape="116.10,464.83 109.27,460.67"/>
        <lane id=":230600243-AddedOnRampNode_0_1" index="1" allow="private emergency authority army vip passenger hov taxi bus coach delivery truck trailer motorcycle evehicle custom1 custom2" speed="31.29" length="8.00" shape="117.77,462.10 110.93,457.94"/>
        <lane id=":230600243-AddedOnRampNode_0_2" index="2" allow="private emergency authority army vip passenger hov taxi bus coach delivery truck trailer motorcycle evehicle custom1 custom2" speed="31.29" length="8.00" shape="119.43,459.37 112.60,455.20"/>
        <lane id=":230600243-AddedOnRampNode_0_3" index="3" allow="private emergency authority army vip passenger hov taxi bus coach delivery truck trailer motorcycle evehicle custom1 custom2" speed="31.29" length="8.00" shape="121.09,456.63 114.26,452.47"/>
    </edge>
    <edge id=":28180422-AddedOffRampNode_0" function="internal">
        <lane id=":28180422-AddedOffRampNode_0_0" index="0" allow="private emergency authority army vip passenger hov taxi bus coach delivery truck trailer motorcycle evehicle custom1 custom2" speed="22.35" length="8.93" shape="792.98,1228.24 793.70,1225.43 792.67,1223.07 791.66,1220.72 792.44,1217.96"/>
        <lane id=":28180422-AddedOffRampNode_0_1" index="1" allow="private emergency authority army vip passenger hov taxi bus coach delivery truck trailer motorcycle evehicle custom1 custom2" speed="22.35" length="8.93" shape="792.98,1228.24 793.98,1225.91 793.97,1224.01 793.99,1222.13 795.03,1219.84"/>
        <lane id=":28180422-AddedOffRampNode_0_2" index="2" allow="private emergency authority army vip passenger hov taxi bus coach delivery truck trailer motorcycle evehicle custom1 custom2" speed="22.35" length="8.93" shape="792.98,1228.24 797.62,1221.72"/>
        <lane id=":28180422-AddedOffRampNode_0_3" index="3" allow="private emergency authority army vip passenger hov taxi bus coach delivery truck trailer motorcycle evehicle custom1 custom2" speed="22.35" length="8.93" shape="795.58,1230.10 800.21,1223.60"/>
    </edge>
    <edge id=":298553553_0" function="internal">
        <lane id=":298553553_0_0" index="0" allow="private emergency authority army vip passenger hov taxi bus coach delivery truck trailer motorcycle evehicle custom1 custom2" speed="31.29" length="3.14" shape="976.85,536.71 976.76,535.79 976.72,535.15 976.70,534.51 976.69,533.58"/>
    </edge>
    <edge id=":298553553_1" function="internal">
        <lane id=":298553553_1_0" index="0" allow="private emergency authority army vip passenger hov taxi bus coach delivery truck trailer motorcycle evehicle custom1 custom2" speed="31.29" length="3.13" shape="973.50,536.72 973.49,533.59"/>
    </edge>
    <edge id=":3005116315_0" function="internal">
        <lane id=":3005116315_0_0" index="0" allow="private emergency authority army vip passenger hov taxi bus coach delivery truck trailer motorcycle evehicle custom1 custom2" speed="31.29" length="3.06" shape="505.34,688.22 502.63,686.71"/>
        <lane id=":3005116315_0_1" index="1" allow="private emergency authority army vip passenger hov taxi bus coach delivery truck trailer motorcycle evehicle custom1 custom2" speed="31.29" length="3.06" shape="506.82,685.38 504.19,683.92"/>
    </edge>
    <edge id=":3005116315_2" function="internal">
        <lane id=":3005116315_2_0" index="0" allow="private emergency authority army vip passenger hov taxi bus coach delivery truck trailer motorcycle evehicle custom1 custom2" speed="31.29" length="3.43" shape="507.58,683.92 506.87,683.28 506.66,682.54 506.44,681.80 505.75,681.12"/>
        <lane id=":3005116315_2_1" index="1" allow="private emergency authority army vip passenger hov taxi bus coach delivery truck trailer motorcycle evehicle custom1 custom2" speed="31.29" length="3.43" shape="509.06,681.09 508.37,680.45 508.17,679.72 507.98,678.99 507.31,678.33"/>
    </edge>
    <edge id=":3005116317_0" function="internal">
        <lane id=":3005116317_0_0" index="0" allow="private emergency authority army vip passenger hov taxi bus coach delivery truck trailer motorcycle evehicle custom1 custom2" speed="31.29" length="6.60" shape="835.87,1093.43 832.88,1100.17"/>
        <lane id=":3005116317_0_1" index="1" allow="private emergency authority army vip passenger hov taxi bus coach delivery truck trailer motorcycle evehicle custom1 custom2" speed="31.29" length="6.60" shape="832.71,1092.71 830.02,1098.74"/>
        <lane id=":3005116317_0_2" index="2" allow="private emergency authority army vip passenger hov taxi bus coach delivery truck trailer motorcycle evehicle custom1 custom2" speed="31.29" length="6.60" shape="829.55,1092.00 827.17,1097.30"/>
    </edge>
    <edge id=":3005116317_3" function="internal">
        <lane id=":3005116317_3_0" index="0" allow="private emergency authority army vip passenger hov taxi bus coach delivery truck trailer motorcycle evehicle custom1 custom2" speed="31.29" length="6.45" shape="826.07,1091.21 826.16,1093.05 826.89,1094.35 827.49,1095.61 827.17,1097.30"/>
    </edge>
    <edge id=":3005116322_0" function="internal">
        <lane id=":3005116322_0_0" index="0" allow="private emergency authority army vip passenger hov taxi bus coach delivery truck trailer motorcycle evehicle custom1 custom2" speed="26.82" length="0.27" shape="666.51,858.15 666.68,858.45"/>
        <lane id=":3005116322_0_1" index="1" allow="private emergency authority army vip passenger hov taxi bus coach delivery truck trailer motorcycle evehicle custom1 custom2" speed="26.82" length="0.27" shape="663.75,859.76 663.84,859.93"/>
    </edge>
    <edge id=":322825_0" function="internal">
        <lane id=":322825_0_0" index="0" allow="private emergency authority army vip passenger hov taxi bus coach delivery truck trailer motorcycle evehicle custom1 custom2" speed="31.29" length="3.68" shape="417.28,1769.28 415.50,1772.97"/>