<?xml version="1.0" encoding="UTF-8"?>
<routes xmlns:xsi="http://www.w3.org/2001/XMLSchema-instance" xsi:noNamespaceSchemaLocation="http://sumo.dlr.de/xsd/routes_file.xsd">
    <vehicle id="785" depart="1.01">
        <route edges="E5 145868728 145876496 611356040 145876499 158470844#1-AddedOnRampEdge 158470844#1 145852821 145852821.67 145852815 145852815-AddedOffRampEdge 1066957350 145852800#1"/>
    </vehicle>
    <vehicle id="1025" depart="1.14">
        <route edges="E4 145868728 145876496 611356040 145876499 158470844#1-AddedOnRampEdge 158470844#1 145852821 145852821.67 145852815 145852815-AddedOffRampEdge 1066957350 145852800#1"/>
    </vehicle>
    <vehicle id="893" depart="1.36">
        <route edges="E13 E2 146417963 146417963-AddedOffRampEdge 158470844#0 158470844#1-AddedOnRampEdge 158470844#1 145852821 145852821.67 145852815 145852815-AddedOffRampEdge 1066957350 145852800#1"/>
    </vehicle>
    <vehicle id="720" depart="1.55">
        <route edges="E6 46372495 111538044 296702213 E15 145852821.67 145852815 145852815-AddedOffRampEdge 1066957350 145852800#1"/>
    </vehicle>
    <vehicle id="91" depart="1.65">
        <route edges="E14 E2 146417963 146417963-AddedOffRampEdge 158470844#0 158470844#1-AddedOnRampEdge 158470844#1 145852821 145852821.67 145852815 145852815-AddedOffRampEdge 1066957350 145852800#1"/>
    </vehicle>
    <vehicle id="1159" depart="1.78">
        <route edges="E14 E2 146417963 146417963-AddedOffRampEdge 158470844#0 158470844#1-AddedOnRampEdge 158470844#1 145852821 145852821.67 145852815 145852815-AddedOffRampEdge 145852856"/>
    </vehicle>
    <vehicle id="949" depart="1.96">
        <route edges="E4 145868728 145876496 611356040 145876499 158470844#1-AddedOnRampEdge 158470844#1 145852821 145852821.67 145852815 145852815-AddedOffRampEdge 1066957350 145852800#1"/>
    </vehicle>
    <vehicle id="946" depart="2.08">
        <route edges="E12 E0 146417963 146417963-AddedOffRampEdge 158470844#0 158470844#1-AddedOnRampEdge 158470844#1 145852821 145852821.67 145852815 145852815-AddedOffRampEdge 1066957350 145852800#1"/>
    </vehicle>
    <vehicle id="533" depart="2.27">
        <route edges="E14 E2 146417963 146417963-AddedOffRampEdge 158470844#0 158470844#1-AddedOnRampEdge 158470844#1 145852821 145852821.67 145852815 145852815-AddedOffRampEdge 145852856"/>
    </vehicle>
    <vehicle id="552" depart="2.46">
        <route edges="E13 E2 146417963 146417963-AddedOffRampEdge 158470844#0 158470844#1-AddedOnRampEdge 158470844#1 145852821 145852821.67 145852815 145852815-AddedOffRampEdge 1066957350 145852800#1"/>
    </vehicle>
    <vehicle id="572" depart="2.65">
        <route edges="E3 145868728 145876496 611356040 145876499 158470844#1-AddedOnRampEdge 158470844#1 145852821 145852821.67 145852815 145852815-AddedOffRampEdge 1066957350 145852800#1"/>
    </vehicle>
    <vehicle id="388" depart="2.78">
        <route edges="E10 E1 146417963 146417963-AddedOffRampEdge 158470844#0 158470844#1-AddedOnRampEdge 158470844#1 145852821 145852821.67 145852815 145852815-AddedOffRampEdge 145852856"/>
    </vehicle>
    <vehicle id="211" depart="2.83">
        <route edges="E12 E0 146417963 146417963-AddedOffRampEdge 158470844#0 158470844#1-AddedOnRampEdge 158470844#1 145852821 145852821.67 145852815 145852815-AddedOffRampEdge 1066957350 145852800#1"/>
    </vehicle>
    <vehicle id="695" depart="3.05">
        <route edges="E6 46372495 111538044 296702213 E15 145852821.67 145852815 145852815-AddedOffRampEdge 1066957350 145852800#1"/>
    </vehicle>
    <vehicle id="407" depart="3.07">
        <route edges="E5 145868728 145876496 611356040 145876499 158470844#1-AddedOnRampEdge 158470844#1 145852821 145852821.67 145852815 145852815-AddedOffRampEdge 1066957350 145852800#1"/>
    </vehicle>
    <vehicle id="828" depart="3.08">
        <route edges="E4 145868728 145876496 611356040 145876499 158470844#1-AddedOnRampEdge 158470844#1 145852821 145852821.67 145852815 145852815-AddedOffRampEdge 1066957350 145852800#1"/>
    </vehicle>
    <vehicle id="301" depart="3.64">
        <route edges="E10 E1 146417963 146417963-AddedOffRampEdge 158470844#0 158470844#1-AddedOnRampEdge 158470844#1 145852821 145852821.67 145852815 145852815-AddedOffRampEdge 1066957350 145852800#1"/>
    </vehicle>
    <vehicle id="212" depart="3.78">
        <route edges="E7 46372495 111538044 296702213 296702213.417 145852821 145852821.67 145852815 145852815-AddedOffRampEdge 1066957350 145852800#1"/>
    </vehicle>
    <vehicle id="981" depart="3.83">
        <route edges="E13 E2 146417963 146417963-AddedOffRampEdge 158470844#0 158470844#1-AddedOnRampEdge 158470844#1 145852821 145852821.67 145852815 145852815-AddedOffRampEdge 1066957350 145852800#1"/>
    </vehicle>
    <vehicle id="937" depart="3.89">
        <route edges="E13 E2 146417963 146417963-AddedOffRampEdge 158470844#0 158470844#1-AddedOnRampEdge 158470844#1 145852821 145852821.67 145852815 145852815-AddedOffRampEdge 1066957350 145852800#1"/>
    </vehicle>
    <vehicle id="615" depart="4.05">
        <route edges="E11 E0 146417963 146417963-AddedOffRampEdge 158470844#0 158470844#1-AddedOnRampEdge 158470844#1 145852821 145852821.67 145852815 145852815-AddedOffRampEdge 145852856"/>
    </vehicle>
    <vehicle id="835" depart="4.27">
        <route edges="E6 46372495 111538044 296702213 E15 145852821.67 145852815 145852815-AddedOffRampEdge 1066957350 145852800#1"/>
    </vehicle>
    <vehicle id="1150" depart="4.6">
        <route edges="E12 E0 146417963 146417963-AddedOffRampEdge 158470844#0 158470844#1-AddedOnRampEdge 158470844#1 145852821 145852821.67 145852815 145852815-AddedOffRampEdge 1066957350 145852800#1"/>
    </vehicle>
    <vehicle id="807" depart="5.22">
        <route edges="E13 E2 146417963 146417963-AddedOffRampEdge 158470844#0 158470844#1-AddedOnRampEdge 158470844#1 145852821 145852821.67 145852815 145852815-AddedOffRampEdge 1066957350 145852800#1"/>
    </vehicle>
    <vehicle id="716" depart="5.56">
        <route edges="E13 E2 146417963 146417963-AddedOffRampEdge 158470844#0 158470844#1-AddedOnRampEdge 158470844#1 145852821 145852821.67 145852815 145852815-AddedOffRampEdge 1066957350 145852800#1"/>
    </vehicle>
    <vehicle id="140" depart="5.61">
        <route edges="E5 145868728 145876496 611356040 145876499 158470844#1-AddedOnRampEdge 158470844#1 145852821 145852821.67 145852815 145852815-AddedOffRampEdge 1066957350 145852800#1"/>
    </vehicle>
    <vehicle id="617" depart="6.48">
        <route edges="E7 46372495 111538044 296702213 296702213.417 145852821 145852821.67 145852815 145852815-AddedOffRampEdge 1066957350 145852800#1"/>
    </vehicle>
    <vehicle id="902" depart="6.6">
        <route edges="E5 145868728 145876496 611356040 145876499 158470844#1-AddedOnRampEdge 158470844#1 145852821 145852821.67 145852815 145852815-AddedOffRampEdge 1066957350 145852800#1"/>
    </vehicle>
    <vehicle id="1078" depart="6.98">
        <route edges="E6 46372495 111538044 296702213 296702213.417 145852821 145852821.67 145852815 145852815-AddedOffRampEdge 1066957350 145852800#1"/>
    </vehicle>
    <vehicle id="429" depart="7.09">
        <route edges="E11 E0 146417963 146417963-AddedOffRampEdge 158470844#0 158470844#1-AddedOnRampEdge 158470844#1 145852821 145852821.67 145852815 145852815-AddedOffRampEdge 1066957350 145852800#1"/>
    </vehicle>
    <vehicle id="626" depart="7.26">
        <route edges="E13 E2 146417963 146417963-AddedOffRampEdge 158470844#0 158470844#1-AddedOnRampEdge 158470844#1 145852821 145852821.67 145852815 145852815-AddedOffRampEdge 1066957350 145852800#1"/>
    </vehicle>
    <vehicle id="587" depart="7.53">
        <route edges="E3 145868728 145876496 611356040 145876499 158470844#1-AddedOnRampEdge 158470844#1 145852821 145852821.67 145852815 145852815-AddedOffRampEdge 1066957350 145852800#1"/>
    </vehicle>
    <vehicle id="954" depart="7.66">
        <route edges="E8 46372495 111538044 296702213 E15 145852821.67 145852815 145852815-AddedOffRampEdge 1066957350 145852800#1"/>
    </vehicle>
    <vehicle id="827" depart="8.19">
        <route edges="E3 145868728 145876496 611356040 145876499 158470844#1-AddedOnRampEdge 158470844#1 145852821 145852821.67 145852815 145852815-AddedOffRampEdge 1066957350 145852800#1"/>
    </vehicle>
    <vehicle id="63" depart="8.25">
        <route edges="E13 E2 146417963 146417963-AddedOffRampEdge 158470844#0 158470844#1-AddedOnRampEdge 158470844#1 145852821 145852821.67 145852815 145852815-AddedOffRampEdge 1066957350 145852800#1"/>
    </vehicle>
    <vehicle id="970" depart="8.5">
        <route edges="E12 E0 146417963 146417963-AddedOffRampEdge 158470844#0 158470844#1-AddedOnRampEdge 158470844#1 145852821 145852821.67 145852815 145852815-AddedOffRampEdge 1066957350 145852800#1"/>
    </vehicle>
    <vehicle id="65" depart="8.58">
        <route edges="E9 E1 146417963 146417963-AddedOffRampEdge 158470844#0 158470844#1-AddedOnRampEdge 158470844#1 145852821 145852821.67 145852815 145852815-AddedOffRampEdge 145852856"/>
    </vehicle>
    <vehicle id="115" depart="9.21">
        <route edges="E7 46372495 111538044 296702213 E15 145852821.67 145852815 145852815-AddedOffRampEdge 1066957350 145852800#1"/>
    </vehicle>
    <vehicle id="616" depart="9.25">
        <route edges="E10 E1 146417963 146417963-AddedOffRampEdge 158470844#0 158470844#1-AddedOnRampEdge 158470844#1 145852821 145852821.67 145852815 145852815-AddedOffRampEdge 1066957350 145852800#1"/>
    </vehicle>
    <vehicle id="822" depart="9.25">
        <route edges="E10 E1 146417963 146417963-AddedOffRampEdge 158470844#0 158470844#1-AddedOnRampEdge 158470844#1 145852821 145852821.67 145852815 145852815-AddedOffRampEdge 1066957350 145852800#1"/>
    </vehicle>
    <vehicle id="392" depart="9.58">
        <route edges="E3 145868728 145876496 611356040 145876499 158470844#1-AddedOnRampEdge 158470844#1 145852821 145852821.67 145852815 145852815-AddedOffRampEdge 1066957350 145852800#1"/>
    </vehicle>
    <vehicle id="871" depart="9.69">
        <route edges="E14 E2 146417963 146417963-AddedOffRampEdge 158470844#0 158470844#1-AddedOnRampEdge 158470844#1 145852821 145852821.67 145852815 145852815-AddedOffRampEdge 145852856"/>
    </vehicle>
    <vehicle id="998" depart="9.69">
        <route edges="E10 E1 146417963 146417963-AddedOffRampEdge 158470844#0 158470844#1-AddedOnRampEdge 158470844#1 145852821 145852821.67 145852815 145852815-AddedOffRampEdge 145852856"/>
    </vehicle>
    <vehicle id="786" depart="10.04">
        <route edges="E10 E1 146417963 146417963-AddedOffRampEdge 158470844#0 158470844#1-AddedOnRampEdge 158470844#1 145852821 145852821.67 145852815 145852815-AddedOffRampEdge 1066957350 145852800#1"/>
    </vehicle>
    <vehicle id="582" depart="10.24">
        <route edges="E3 145868728 145876496 611356040 145876499 158470844#1-AddedOnRampEdge 158470844#1 145852821 145852821.67 145852815 145852815-AddedOffRampEdge 1066957350 145852800#1"/>
    </vehicle>
    <vehicle id="574" depart="10.25">
        <route edges="E10 E1 146417963 146417963-AddedOffRampEdge 158470844#0 158470844#1-AddedOnRampEdge 158470844#1 145852821 145852821.67 145852815 145852815-AddedOffRampEdge 1066957350 145852800#1"/>
    </vehicle>
    <vehicle id="449" depart="10.57">
        <route edges="E14 E2 146417963 146417963-AddedOffRampEdge 158470844#0 158470844#1-AddedOnRampEdge 158470844#1 145852821 145852821.67 145852815 145852815-AddedOffRampEdge 1066957350 145852800#1"/>
    </vehicle>
    <vehicle id="904" depart="10.77">
        <route edges="E14 E2 146417963 146417963-AddedOffRampEdge 158470844#0 158470844#1-AddedOnRampEdge 158470844#1 145852821 145852821.67 145852815 145852815-AddedOffRampEdge 145852856"/>
    </vehicle>
    <vehicle id="193" depart="10.99">
        <route edges="E12 E0 146417963 146417963-AddedOffRampEdge 158470844#0 158470844#1-AddedOnRampEdge 158470844#1 145852821 145852821.67 145852815 145852815-AddedOffRampEdge 1066957350 145852800#1"/>
    </vehicle>
    <vehicle id="347" depart="11.05">
        <route edges="E11 E0 146417963 146417963-AddedOffRampEdge 158470844#0 158470844#1-AddedOnRampEdge 158470844#1 145852821 145852821.67 145852815 145852815-AddedOffRampEdge 1066957350 145852800#1"/>
    </vehicle>
    <vehicle id="558" depart="11.18">
        <route edges="E5 145868728 145876496 611356040 145876499 158470844#1-AddedOnRampEdge 158470844#1 145852821 145852821.67 145852815 145852815-AddedOffRampEdge 1066957350 145852800#1"/>
    </vehicle>
    <vehicle id="1006" depart="11.25">
        <route edges="E3 145868728 145876496 611356040 145876499 158470844#1-AddedOnRampEdge 158470844#1 145852821 145852821.67 145852815 145852815-AddedOffRampEdge 1066957350 145852800#1"/>
    </vehicle>
    <vehicle id="384" depart="11.42">
        <route edges="E7 46372495 111538044 296702213 296702213.417 145852821 145852821.67 145852815 145852815-AddedOffRampEdge 1066957350 145852800#1"/>
    </vehicle>
    <vehicle id="50" depart="11.53">
        <route edges="E9 E1 146417963 146417963-AddedOffRampEdge 158470844#0 158470844#1-AddedOnRampEdge 158470844#1 145852821 145852821.67 145852815 145852815-AddedOffRampEdge 1066957350 145852800#1"/>
    </vehicle>
    <vehicle id="547" depart="11.61">
        <route edges="E4 145868728 145876496 611356040 145876499 158470844#1-AddedOnRampEdge 158470844#1 145852821 145852821.67 145852815 145852815-AddedOffRampEdge 1066957350 145852800#1"/>
    </vehicle>
    <vehicle id="263" depart="11.7">
        <route edges="E3 145868728 145876496 611356040 145876499 158470844#1-AddedOnRampEdge 158470844#1 145852821 145852821.67 145852815 145852815-AddedOffRampEdge 1066957350 145852800#1"/>
    </vehicle>
    <vehicle id="1194" depart="11.83">
        <route edges="E5 145868728 145876496 611356040 145876499 158470844#1-AddedOnRampEdge 158470844#1 145852821 145852821.67 145852815 145852815-AddedOffRampEdge 1066957350 145852800#1"/>
    </vehicle>
    <vehicle id="166" depart="11.84">
        <route edges="E12 E0 146417963 146417963-AddedOffRampEdge 158470844#0 158470844#1-AddedOnRampEdge 158470844#1 145852821 145852821.67 145852815 145852815-AddedOffRampEdge 1066957350 145852800#1"/>
    </vehicle>
    <vehicle id="231" depart="11.98">
        <route edges="E5 145868728 145876496 611356040 145876499 158470844#1-AddedOnRampEdge 158470844#1 145852821 145852821.67 145852815 145852815-AddedOffRampEdge 1066957350 145852800#1"/>
    </vehicle>
    <vehicle id="71" depart="12.11">
        <route edges="E5 145868728 145876496 611356040 145876499 158470844#1-AddedOnRampEdge 158470844#1 145852821 145852821.67 145852815 145852815-AddedOffRampEdge 1066957350 145852800#1"/>
    </vehicle>
    <vehicle id="472" depart="12.11">
        <route edges="E4 145868728 145876496 611356040 145876499 158470844#1-AddedOnRampEdge 158470844#1 145852821 145852821.67 145852815 145852815-AddedOffRampEdge 1066957350 145852800#1"/>
    </vehicle>
    <vehicle id="932" depart="12.24">
        <route edges="E12 E0 146417963 146417963-AddedOffRampEdge 158470844#0 158470844#1-AddedOnRampEdge 158470844#1 145852821 145852821.67 145852815 145852815-AddedOffRampEdge 1066957350 145852800#1"/>
    </vehicle>
    <vehicle id="550" depart="12.35">
        <route edges="E4 145868728 145876496 611356040 145876499 158470844#1-AddedOnRampEdge 158470844#1 145852821 145852821.67 145852815 145852815-AddedOffRampEdge 1066957350 145852800#1"/>
    </vehicle>
    <vehicle id="758" depart="12.76">
        <route edges="E14 E2 146417963 146417963-AddedOffRampEdge 158470844#0 158470844#1-AddedOnRampEdge 158470844#1 145852821 145852821.67 145852815 145852815-AddedOffRampEdge 1066957350 145852800#1"/>
    </vehicle>
    <vehicle id="715" depart="12.82">
        <route edges="E4 145868728 145876496 611356040 145876499 158470844#1-AddedOnRampEdge 158470844#1 145852821 145852821.67 145852815 145852815-AddedOffRampEdge 1066957350 145852800#1"/>
    </vehicle>
    <vehicle id="162" depart="13.05">
        <route edges="E9 E1 146417963 146417963-AddedOffRampEdge 158470844#0 158470844#1-AddedOnRampEdge 158470844#1 145852821 145852821.67 145852815 145852815-AddedOffRampEdge 1066957350 145852800#1"/>
    </vehicle>
    <vehicle id="191" depart="13.08">
        <route edges="E9 E1 146417963 146417963-AddedOffRampEdge 158470844#0 158470844#1-AddedOnRampEdge 158470844#1 145852821 145852821.67 145852815 145852815-AddedOffRampEdge 1066957350 145852800#1"/>
    </vehicle>
    <vehicle id="1198" depart="13.31">
        <route edges="E7 46372495 111538044 296702213 296702213.417 145852821 145852821.67 145852815 145852815-AddedOffRampEdge 1066957350 145852800#1"/>
    </vehicle>
    <vehicle id="579" depart="13.44">
        <route edges="E5 145868728 145876496 611356040 145876499 158470844#1-AddedOnRampEdge 158470844#1 145852821 145852821.67 145852815 145852815-AddedOffRampEdge 1066957350 145852800#1"/>
    </vehicle>
    <vehicle id="1007" depart="13.46">
        <route edges="E14 E2 146417963 146417963-AddedOffRampEdge 158470844#0 158470844#1-AddedOnRampEdge 158470844#1 145852821 145852821.67 145852815 145852815-AddedOffRampEdge 1066957350 145852800#1"/>
    </vehicle>
    <vehicle id="977" depart="13.74">
        <route edges="E9 E1 146417963 146417963-AddedOffRampEdge 158470844#0 158470844#1-AddedOnRampEdge 158470844#1 145852821 145852821.67 145852815 145852815-AddedOffRampEdge 1066957350 145852800#1"/>
    </vehicle>
    <vehicle id="298" depart="13.82">
        <route edges="E8 46372495 111538044 296702213 296702213.417 145852821 145852821.67 145852815 145852815-AddedOffRampEdge 1066957350 145852800#1"/>
    </vehicle>
    <vehicle id="497" depart="14.03">
        <route edges="E10 E1 146417963 146417963-AddedOffRampEdge 158470844#0 158470844#1-AddedOnRampEdge 158470844#1 145852821 145852821.67 145852815 145852815-AddedOffRampEdge 1066957350 145852800#1"/>
    </vehicle>
    <vehicle id="1052" depart="14.03">
        <route edges="E11 E0 146417963 146417963-AddedOffRampEdge 158470844#0 158470844#1-AddedOnRampEdge 158470844#1 145852821 145852821.67 145852815 145852815-AddedOffRampEdge 1066957350 145852800#1"/>
    </vehicle>
    <vehicle id="817" depart="14.55">
        <route edges="E5 145868728 145876496 611356040 145876499 158470844#1-AddedOnRampEdge 158470844#1 145852821 145852821.67 145852815 145852815-AddedOffRampEdge 1066957350 145852800#1"/>
    </vehicle>
    <vehicle id="605" depart="14.69">
        <route edges="E5 145868728 145876496 611356040 145876499 158470844#1-AddedOnRampEdge 158470844#1 145852821 145852821.67 145852815 145852815-AddedOffRampEdge 1066957350 145852800#1"/>
    </vehicle>
    <vehicle id="768" depart="14.84">
        <route edges="E6 46372495 111538044 296702213 E15 145852821.67 145852815 145852815-AddedOffRampEdge 1066957350 145852800#1"/>
    </vehicle>
    <vehicle id="241" depart="14.9">
        <route edges="E8 46372495 111538044 296702213 296702213.417 145852821 145852821.67 145852815 145852815-AddedOffRampEdge 1066957350 145852800#1"/>
    </vehicle>
    <vehicle id="710" depart="15.21">
        <route edges="E11 E0 146417963 146417963-AddedOffRampEdge 158470844#0 158470844#1-AddedOnRampEdge 158470844#1 145852821 145852821.67 145852815 145852815-AddedOffRampEdge 1066957350 145852800#1"/>
    </vehicle>
    <vehicle id="556" depart="15.32">
        <route edges="E9 E1 146417963 146417963-AddedOffRampEdge 158470844#0 158470844#1-AddedOnRampEdge 158470844#1 145852821 145852821.67 145852815 145852815-AddedOffRampEdge 1066957350 145852800#1"/>
    </vehicle>
    <vehicle id="409" depart="15.5">
        <route edges="E5 145868728 145876496 611356040 145876499 158470844#1-AddedOnRampEdge 158470844#1 145852821 145852821.67 145852815 145852815-AddedOffRampEdge 1066957350 145852800#1"/>
    </vehicle>
    <vehicle id="697" depart="15.61">
        <route edges="E6 46372495 111538044 296702213 E15 145852821.67 145852815 145852815-AddedOffRampEdge 1066957350 145852800#1"/>
    </vehicle>
    <vehicle id="653" depart="16.06">
        <route edges="E12 E0 146417963 146417963-AddedOffRampEdge 158470844#0 158470844#1-AddedOnRampEdge 158470844#1 145852821 145852821.67 145852815 145852815-AddedOffRampEdge 1066957350 145852800#1"/>
    </vehicle>
    <vehicle id="1064" depart="16.32">
        <route edges="E10 E1 146417963 146417963-AddedOffRampEdge 158470844#0 158470844#1-AddedOnRampEdge 158470844#1 145852821 145852821.67 145852815 145852815-AddedOffRampEdge 1066957350 145852800#1"/>
    </vehicle>
    <vehicle id="812" depart="16.39">
        <route edges="E8 46372495 111538044 296702213 296702213.417 145852821 145852821.67 145852815 145852815-AddedOffRampEdge 1066957350 145852800#1"/>
    </vehicle>
    <vehicle id="90" depart="16.53">
        <route edges="E4 145868728 145876496 611356040 145876499 158470844#1-AddedOnRampEdge 158470844#1 145852821 145852821.67 145852815 145852815-AddedOffRampEdge 1066957350 145852800#1"/>
    </vehicle>
    <vehicle id="7" depart="16.56">
        <route edges="E13 E2 146417963 146417963-AddedOffRampEdge 158470844#0 158470844#1-AddedOnRampEdge 158470844#1 145852821 145852821.67 145852815 145852815-AddedOffRampEdge 1066957350 145852800#1"/>
    </vehicle>
    <vehicle id="802" depart="16.78">
        <route edges="E9 E1 146417963 146417963-AddedOffRampEdge 158470844#0 158470844#1-AddedOnRampEdge 158470844#1 145852821 145852821.67 145852815 145852815-AddedOffRampEdge 1066957350 145852800#1"/>
    </vehicle>
    <vehicle id="874" depart="16.89">
        <route edges="E13 E2 146417963 146417963-AddedOffRampEdge 158470844#0 158470844#1-AddedOnRampEdge 158470844#1 145852821 145852821.67 145852815 145852815-AddedOffRampEdge 1066957350 145852800#1"/>
    </vehicle>
    <vehicle id="737" depart="16.98">
        <route edges="E12 E0 146417963 146417963-AddedOffRampEdge 158470844#0 158470844#1-AddedOnRampEdge 158470844#1 145852821 145852821.67 145852815 145852815-AddedOffRampEdge 1066957350 145852800#1"/>
    </vehicle>
    <vehicle id="49" depart="17.12">
        <route edges="E3 145868728 145876496 611356040 145876499 158470844#1-AddedOnRampEdge 158470844#1 145852821 145852821.67 145852815 145852815-AddedOffRampEdge 1066957350 145852800#1"/>
    </vehicle>
    <vehicle id="70" depart="17.21">
        <route edges="E10 E1 146417963 146417963-AddedOffRampEdge 158470844#0 158470844#1-AddedOnRampEdge 158470844#1 145852821 145852821.67 145852815 145852815-AddedOffRampEdge 1066957350 145852800#1"/>
    </vehicle>
    <vehicle id="21" depart="17.32">
        <route edges="E7 46372495 111538044 296702213 296702213.417 145852821 145852821.67 145852815 145852815-AddedOffRampEdge 1066957350 145852800#1"/>
    </vehicle>
    <vehicle id="198" depart="17.38">
        <route edges="E13 E2 146417963 146417963-AddedOffRampEdge 158470844#0 158470844#1-AddedOnRampEdge 158470844#1 145852821 145852821.67 145852815 145852815-AddedOffRampEdge 145852856"/>
    </vehicle>
    <vehicle id="850" depart="17.51">
        <route edges="E5 145868728 145876496 611356040 145876499 158470844#1-AddedOnRampEdge 158470844#1 145852821 145852821.67 145852815 145852815-AddedOffRampEdge 1066957350 145852800#1"/>
    </vehicle>
    <vehicle id="405" depart="17.76">
        <route edges="E12 E0 146417963 146417963-AddedOffRampEdge 158470844#0 158470844#1-AddedOnRampEdge 158470844#1 145852821 145852821.67 145852815 145852815-AddedOffRampEdge 1066957350 145852800#1"/>
    </vehicle>
    <vehicle id="564" depart="18.09">
        <route edges="E13 E2 146417963 146417963-AddedOffRampEdge 158470844#0 158470844#1-AddedOnRampEdge 158470844#1 145852821 145852821.67 145852815 145852815-AddedOffRampEdge 1066957350 145852800#1"/>
    </vehicle>
    <vehicle id="322" depart="18.2">
        <route edges="E3 145868728 145876496 611356040 145876499 158470844#1-AddedOnRampEdge 158470844#1 145852821 145852821.67 145852815 145852815-AddedOffRampEdge 1066957350 145852800#1"/>
    </vehicle>
    <vehicle id="442" depart="18.8">
        <route edges="E11 E0 146417963 146417963-AddedOffRampEdge 158470844#0 158470844#1-AddedOnRampEdge 158470844#1 145852821 145852821.67 145852815 145852815-AddedOffRampEdge 1066957350 145852800#1"/>
    </vehicle>
    <vehicle id="702" depart="18.95">
        <route edges="E4 145868728 145876496 611356040 145876499 158470844#1-AddedOnRampEdge 158470844#1 145852821 145852821.67 145852815 145852815-AddedOffRampEdge 1066957350 145852800#1"/>
    </vehicle>
    <vehicle id="413" depart="19.03">
        <route edges="E5 145868728 145876496 611356040 145876499 158470844#1-AddedOnRampEdge 158470844#1 145852821 145852821.67 145852815 145852815-AddedOffRampEdge 1066957350 145852800#1"/>
    </vehicle>
    <vehicle id="866" depart="19.21">
        <route edges="E8 46372495 111538044 296702213 E15 145852821.67 145852815 145852815-AddedOffRampEdge 1066957350 145852800#1"/>
    </vehicle>
    <vehicle id="215" depart="19.32">
        <route edges="E9 E1 146417963 146417963-AddedOffRampEdge 158470844#0 158470844#1-AddedOnRampEdge 158470844#1 145852821 145852821.67 145852815 145852815-AddedOffRampEdge 1066957350 145852800#1"/>
    </vehicle>
    <vehicle id="1121" depart="19.38">
        <route edges="E5 145868728 145876496 611356040 145876499 158470844#1-AddedOnRampEdge 158470844#1 145852821 145852821.67 145852815 145852815-AddedOffRampEdge 1066957350 145852800#1"/>
    </vehicle>
    <vehicle id="480" depart="19.61">
        <route edges="E6 46372495 111538044 296702213 E15 145852821.67 145852815 145852815-AddedOffRampEdge 1066957350 145852800#1"/>
    </vehicle>
    <vehicle id="878" depart="19.8">
        <route edges="E9 E1 146417963 146417963-AddedOffRampEdge 158470844#0 158470844#1-AddedOnRampEdge 158470844#1 145852821 145852821.67 145852815 145852815-AddedOffRampEdge 1066957350 145852800#1"/>
    </vehicle>
    <vehicle id="719" depart="19.99">
        <route edges="E7 46372495 111538044 296702213 296702213.417 145852821 145852821.67 145852815 145852815-AddedOffRampEdge 1066957350 145852800#1"/>
    </vehicle>
    <vehicle id="420" depart="20.14">
        <route edges="E10 E1 146417963 146417963-AddedOffRampEdge 158470844#0 158470844#1-AddedOnRampEdge 158470844#1 145852821 145852821.67 145852815 145852815-AddedOffRampEdge 145852856"/>
    </vehicle>
    <vehicle id="1034" depart="20.3">
        <route edges="E3 145868728 145876496 611356040 145876499 158470844#1-AddedOnRampEdge 158470844#1 145852821 145852821.67 145852815 145852815-AddedOffRampEdge 1066957350 145852800#1"/>
    </vehicle>
    <vehicle id="351" depart="20.36">
        <route edges="E14 E2 146417963 146417963-AddedOffRampEdge 158470844#0 158470844#1-AddedOnRampEdge 158470844#1 145852821 145852821.67 145852815 145852815-AddedOffRampEdge 1066957350 145852800#1"/>
    </vehicle>
    <vehicle id="1004" depart="20.55">
        <route edges="E5 145868728 145876496 611356040 145876499 158470844#1-AddedOnRampEdge 158470844#1 145852821 145852821.67 145852815 145852815-AddedOffRampEdge 1066957350 145852800#1"/>
    </vehicle>
    <vehicle id="1068" depart="20.75">
        <route edges="E10 E1 146417963 146417963-AddedOffRampEdge 158470844#0 158470844#1-AddedOnRampEdge 158470844#1 145852821 145852821.67 145852815 145852815-AddedOffRampEdge 145852856"/>
    </vehicle>
    <vehicle id="725" depart="20.91">
        <route edges="E14 E2 146417963 146417963-AddedOffRampEdge 158470844#0 158470844#1-AddedOnRampEdge 158470844#1 145852821 145852821.67 145852815 145852815-AddedOffRampEdge 1066957350 145852800#1"/>
    </vehicle>
    <vehicle id="1116" depart="20.91">
        <route edges="E3 145868728 145876496 611356040 145876499 158470844#1-AddedOnRampEdge 158470844#1 145852821 145852821.67 145852815 145852815-AddedOffRampEdge 1066957350 145852800#1"/>
    </vehicle>
    <vehicle id="541" depart="21.0">
        <route edges="E8 46372495 111538044 296702213 296702213.417 145852821 145852821.67 145852815 145852815-AddedOffRampEdge 1066957350 145852800#1"/>
    </vehicle>
    <vehicle id="287" depart="21.32">
        <route edges="E5 145868728 145876496 611356040 145876499 158470844#1-AddedOnRampEdge 158470844#1 145852821 145852821.67 145852815 145852815-AddedOffRampEdge 1066957350 145852800#1"/>
    </vehicle>
    <vehicle id="340" depart="21.35">
        <route edges="E7 46372495 111538044 296702213 E15 145852821.67 145852815 145852815-AddedOffRampEdge 1066957350 145852800#1"/>
    </vehicle>
    <vehicle id="189" depart="21.39">
        <route edges="E12 E0 146417963 146417963-AddedOffRampEdge 158470844#0 158470844#1-AddedOnRampEdge 158470844#1 145852821 145852821.67 145852815 145852815-AddedOffRampEdge 1066957350 145852800#1"/>
    </vehicle>
    <vehicle id="371" depart="21.39">
        <route edges="E10 E1 146417963 146417963-AddedOffRampEdge 158470844#0 158470844#1-AddedOnRampEdge 158470844#1 145852821 145852821.67 145852815 145852815-AddedOffRampEdge 1066957350 145852800#1"/>
    </vehicle>
    <vehicle id="387" depart="21.61">
        <route edges="E5 145868728 145876496 611356040 145876499 158470844#1-AddedOnRampEdge 158470844#1 145852821 145852821.67 145852815 145852815-AddedOffRampEdge 1066957350 145852800#1"/>
    </vehicle>
    <vehicle id="337" depart="22.06">
        <route edges="E8 46372495 111538044 296702213 296702213.417 145852821 145852821.67 145852815 145852815-AddedOffRampEdge 1066957350 145852800#1"/>
    </vehicle>
    <vehicle id="154" depart="22.14">
        <route edges="E13 E2 146417963 146417963-AddedOffRampEdge 158470844#0 158470844#1-AddedOnRampEdge 158470844#1 145852821 145852821.67 145852815 145852815-AddedOffRampEdge 1066957350 145852800#1"/>
    </vehicle>
    <vehicle id="727" depart="22.28">
        <route edges="E4 145868728 145876496 611356040 145876499 158470844#1-AddedOnRampEdge 158470844#1 145852821 145852821.67 145852815 145852815-AddedOffRampEdge 1066957350 145852800#1"/>
    </vehicle>
    <vehicle id="96" depart="22.38">