<?xml version="1.0" encoding="UTF-8"?>

<!-- generated on 2024-12-08 21:20:02 by Eclipse SUMO duarouter Version 1.21.0
<duarouterConfiguration xmlns:xsi="http://www.w3.org/2001/XMLSchema-instance" xsi:noNamespaceSchemaLocation="http://sumo.dlr.de/xsd/duarouterConfiguration.xsd">

    <input>
        <net-file value="merge.net.xml"/>
        <route-files value="mergeTraffic.rou.xml"/>
    </input>

    <output>
        <output-file value="mergeTrafficClean.rou.xml"/>
    </output>

    <processing>
        <remove-loops value="true"/>
        <repair value="true"/>
    </processing>

</duarouterConfiguration>
-->

<routes xmlns:xsi="http://www.w3.org/2001/XMLSchema-instance" xsi:noNamespaceSchemaLocation="http://sumo.dlr.de/xsd/routes_file.xsd">
    <vehicle id="1" depart="2.00">
        <route edges="E0 E3"/>
    </vehicle>
    <vehicle id="5" depart="10.00">
        <route edges="E0 E3 E4"/>
    </vehicle>
    <vehicle id="6" depart="12.00">
        <route edges="E0 E3"/>
    </vehicle>
    <vehicle id="7" depart="14.00">
        <route edges="E2 E4"/>
    </vehicle>
    <vehicle id="8" depart="16.00">
        <route edges="E0 E3 E4"/>
    </vehicle>
    <vehicle id="13" depart="26.00">
        <route edges="E0 E3"/>
    </vehicle>
    <vehicle id="16" depart="32.00">
        <route edges="E2 E4"/>
    </vehicle>
    <vehicle id="17" depart="34.00">
        <route edges="E2 E4"/>
    </vehicle>
    <vehicle id="21" depart="42.00">
        <route edges="E0 E3"/>
    </vehicle>
    <vehicle id="22" depart="44.00">
        <route edges="E0 E3"/>
    </vehicle>
    <vehicle id="23" depart="46.00">
        <route edges="E0 E3"/>
    </vehicle>
    <vehicle id="26" depart="52.00">
        <route edges="E0 E3 E4"/>
    </vehicle>
    <vehicle id="27" depart="54.00">
        <route edges="E2 E4"/>
    </vehicle>
    <vehicle id="28" depart="56.00">
        <route edges="E0 E3 E4"/>
    </vehicle>
    <vehicle id="29" depart="58.00">
        <route edges="E0 E3"/>
    </vehicle>
    <vehicle id="31" depart="62.00">
        <route edges="E2 E4"/>
    </vehicle>
    <vehicle id="33" depart="66.00">
        <route edges="E0 E3"/>
    </vehicle>
    <vehicle id="34" depart="68.00">
        <route edges="E0 E3"/>
    </vehicle>
    <vehicle id="35" depart="70.00">
        <route edges="E0 E3 E4"/>
    </vehicle>
    <vehicle id="39" depart="78.00">
        <route edges="E0 E3"/>
    </vehicle>
    <vehicle id="41" depart="82.00">
        <route edges="E2 E4"/>
    </vehicle>
    <vehicle id="44" depart="88.00">
        <route edges="E0 E3"/>
    </vehicle>
    <vehicle id="45" depart="90.00">
        <route edges="E0 E3 E4"/>
    </vehicle>
    <vehicle id="47" depart="94.00">
        <route edges="E0 E3"/>
    </vehicle>
    <vehicle id="50" depart="100.00">
        <route edges="E0 E3 E4"/>
    </vehicle>
    <vehicle id="52" depart="104.00">
        <route edges="E0 E3 E4"/>
    </vehicle>
    <vehicle id="53" depart="106.00">
        <route edges="E0 E3"/>
    </vehicle>
    <vehicle id="54" depart="108.00">
        <route edges="E2 E4"/>
    </vehicle>
    <vehicle id="58" depart="116.00">
        <route edges="E0 E3 E4"/>
    </vehicle>
    <vehicle id="62" depart="124.00">
        <route edges="E0 E3"/>
    </vehicle>
    <vehicle id="63" depart="126.00">
        <route edges="E0 E3 E4"/>
    </vehicle>
    <vehicle id="65" depart="130.00">
        <route edges="E0 E3"/>
    </vehicle>
    <vehicle id="67" depart="134.00">
        <route edges="E0 E3"/>
    </vehicle>
    <vehicle id="68" depart="136.00">
        <route edges="E0 E3 E4"/>
    </vehicle>
    <vehicle id="70" depart="140.00">
        <route edges="E2 E4"/>
    </vehicle>
    <vehicle id="71" depart="142.00">
        <route edges="E0 E3 E4"/>
    </vehicle>
    <vehicle id="73" depart="146.00">
        <route edges="E2 E4"/>
    </vehicle>
    <vehicle id="74" depart="148.00">
        <route edges="E0 E3"/>
    </vehicle>
    <vehicle id="76" depart="152.00">
        <route edges="E2 E4"/>
    </vehicle>
    <vehicle id="77" depart="154.00">
        <route edges="E0 E3"/>
    </vehicle>
    <vehicle id="78" depart="156.00">
        <route edges="E2 E4"/>
    </vehicle>
    <vehicle id="79" depart="158.00">
        <route edges="E0 E3"/>
    </vehicle>
    <vehicle id="80" depart="160.00">
        <route edges="E0 E3 E4"/>
    </vehicle>
    <vehicle id="81" depart="162.00">
        <route edges="E0 E3 E4"/>
    </vehicle>
    <vehicle id="83" depart="166.00">
        <route edges="E0 E3 E4"/>
    </vehicle>
    <vehicle id="84" depart="168.00">
        <route edges="E0 E3"/>
    </vehicle>
    <vehicle id="86" depart="172.00">
        <route edges="E2 E4"/>
    </vehicle>
    <vehicle id="88" depart="176.00">
        <route edges="E0 E3"/>
    </vehicle>
    <vehicle id="94" depart="188.00">
        <route edges="E0 E3"/>
    </vehicle>
    <vehicle id="96" depart="192.00">
        <route edges="E0 E3 E4"/>
    </vehicle>
    <vehicle id="97" depart="194.00">
        <route edges="E2 E4"/>
    </vehicle>
</routes>
