<?xml version="1.0" encoding="UTF-8"?>
<routes xmlns:xsi="http://www.w3.org/2001/XMLSchema-instance" xsi:noNamespaceSchemaLocation="http://sumo.dlr.de/xsd/routes_file.xsd">
    <vehicle id="34" depart="1.38">
        <route edges="E2 E4"/>
    </vehicle>
    <vehicle id="81" depart="2.96">
        <route edges="E2 E4"/>
    </vehicle>
    <vehicle id="12" depart="3.17">
        <route edges="E2 E4"/>
    </vehicle>
    <vehicle id="67" depart="4.77">
        <route edges="E2 E4"/>
    </vehicle>
    <vehicle id="22" depart="5.5">
        <route edges="E0 E3 E4"/>
    </vehicle>
    <vehicle id="92" depart="6.5">
        <route edges="E0 E3 E4"/>
    </vehicle>
    <vehicle id="83" depart="7.28">
        <route edges="E0 E3 E4"/>
    </vehicle>
    <vehicle id="32" depart="7.29">
        <route edges="E2 E4"/>
    </vehicle>
    <vehicle id="80" depart="8.14">
        <route edges="E2 E4"/>
    </vehicle>
    <vehicle id="88" depart="12.64">
        <route edges="E0 E3 E4"/>
    </vehicle>
    <vehicle id="41" depart="14.03">
        <route edges="E0 E3 E4"/>
    </vehicle>
    <vehicle id="96" depart="15.6">
        <route edges="E0 E3 E4"/>
    </vehicle>
    <vehicle id="78" depart="17.66">
        <route edges="E0 E3 E4"/>
    </vehicle>
    <vehicle id="47" depart="17.87">
        <route edges="E2 E4"/>
    </vehicle>
    <vehicle id="93" depart="18.13">
        <route edges="E0 E3 E4"/>
    </vehicle>
    <vehicle id="23" depart="19.02">
        <route edges="E2 E4"/>
    </vehicle>
    <vehicle id="95" depart="22.09">
        <route edges="E2 E4"/>
    </vehicle>
    <vehicle id="21" depart="22.22">
        <route edges="E0 E3 E4"/>
    </vehicle>
    <vehicle id="53" depart="23.0">
        <route edges="E2 E4"/>
    </vehicle>
    <vehicle id="6" depart="25.24">
        <route edges="E0 E3 E4"/>
    </vehicle>
    <vehicle id="84" depart="25.94">
        <route edges="E2 E4"/>
    </vehicle>
    <vehicle id="20" depart="26.9">
        <route edges="E2 E4"/>
    </vehicle>
    <vehicle id="58" depart="29.17">
        <route edges="E0 E3 E4"/>
    </vehicle>
    <vehicle id="56" depart="29.91">
        <route edges="E2 E4"/>
    </vehicle>
    <vehicle id="18" depart="30.21">
        <route edges="E2 E4"/>
    </vehicle>
    <vehicle id="31" depart="31.27">
        <route edges="E0 E3 E4"/>
    </vehicle>
    <vehicle id="26" depart="31.9">
        <route edges="E0 E3 E4"/>
    </vehicle>
    <vehicle id="85" depart="33.09">
        <route edges="E2 E4"/>
    </vehicle>
    <vehicle id="35" depart="34.83">
        <route edges="E2 E4"/>
    </vehicle>
    <vehicle id="28" depart="35.49">
        <route edges="E0 E3 E4"/>
    </vehicle>
    <vehicle id="97" depart="36.52">
        <route edges="E2 E4"/>
    </vehicle>
    <vehicle id="13" depart="37.81">
        <route edges="E0 E3 E4"/>
    </vehicle>
    <vehicle id="76" depart="40.14">
        <route edges="E0 E3 E4"/>
    </vehicle>
    <vehicle id="52" depart="40.45">
        <route edges="E2 E4"/>
    </vehicle>
    <vehicle id="19" depart="41.49">
        <route edges="E0 E3 E4"/>
    </vehicle>
    <vehicle id="36" depart="42.42">
        <route edges="E2 E4"/>
    </vehicle>
    <vehicle id="16" depart="42.8">
        <route edges="E0 E3 E4"/>
    </vehicle>
    <vehicle id="100" depart="43.25">
        <route edges="E2 E4"/>
    </vehicle>
    <vehicle id="11" depart="44.06">
        <route edges="E0 E3 E4"/>
    </vehicle>
    <vehicle id="38" depart="46.0">
        <route edges="E0 E3 E4"/>
    </vehicle>
    <vehicle id="9" depart="46.56">
        <route edges="E0 E3 E4"/>
    </vehicle>
    <vehicle id="72" depart="46.65">
        <route edges="E0 E3 E4"/>
    </vehicle>
    <vehicle id="3" depart="47.04">
        <route edges="E0 E3 E4"/>
    </vehicle>
    <vehicle id="79" depart="48.68">
        <route edges="E0 E3 E4"/>
    </vehicle>
    <vehicle id="64" depart="50.02">
        <route edges="E2 E4"/>
    </vehicle>
    <vehicle id="87" depart="50.93">
        <route edges="E0 E3 E4"/>
    </vehicle>
    <vehicle id="63" depart="51.61">
        <route edges="E0 E3 E4"/>
    </vehicle>
    <vehicle id="15" depart="51.68">
        <route edges="E0 E3 E4"/>
    </vehicle>
    <vehicle id="57" depart="53.12">
        <route edges="E2 E4"/>
    </vehicle>
    <vehicle id="51" depart="53.28">
        <route edges="E0 E3 E4"/>
    </vehicle>
    <vehicle id="60" depart="53.57">
        <route edges="E0 E3 E4"/>
    </vehicle>
    <vehicle id="55" depart="54.46">
        <route edges="E2 E4"/>
    </vehicle>
    <vehicle id="27" depart="54.5">
        <route edges="E2 E4"/>
    </vehicle>
    <vehicle id="54" depart="55.15">
        <route edges="E2 E4"/>
    </vehicle>
    <vehicle id="7" depart="57.31">
        <route edges="E0 E3 E4"/>
    </vehicle>
    <vehicle id="66" depart="58.98">
        <route edges="E0 E3 E4"/>
    </vehicle>
    <vehicle id="24" depart="59.07">
        <route edges="E0 E3 E4"/>
    </vehicle>
    <vehicle id="25" depart="59.21">
        <route edges="E0 E3 E4"/>
    </vehicle>
    <vehicle id="45" depart="59.7">
        <route edges="E2 E4"/>
    </vehicle>
    <vehicle id="46" depart="59.96">
        <route edges="E2 E4"/>
    </vehicle>
    <vehicle id="40" depart="60.58">
        <route edges="E2 E4"/>
    </vehicle>
    <vehicle id="10" depart="60.81">
        <route edges="E2 E4"/>
    </vehicle>
    <vehicle id="62" depart="64.76">
        <route edges="E0 E3 E4"/>
    </vehicle>
    <vehicle id="74" depart="66.53">
        <route edges="E2 E4"/>
    </vehicle>
    <vehicle id="98" depart="66.88">
        <route edges="E2 E4"/>
    </vehicle>
    <vehicle id="75" depart="67.24">
        <route edges="E2 E4"/>
    </vehicle>
    <vehicle id="33" depart="69.48">
        <route edges="E0 E3 E4"/>
    </vehicle>
    <vehicle id="37" depart="70.13">
        <route edges="E0 E3 E4"/>
    </vehicle>
    <vehicle id="77" depart="70.44">
        <route edges="E0 E3 E4"/>
    </vehicle>
    <vehicle id="86" depart="72.26">
        <route edges="E2 E4"/>
    </vehicle>
    <vehicle id="91" depart="73.03">
        <route edges="E0 E3 E4"/>
    </vehicle>
    <vehicle id="4" depart="74.38">
        <route edges="E0 E3 E4"/>
    </vehicle>
    <vehicle id="73" depart="74.61">
        <route edges="E2 E4"/>
    </vehicle>
    <vehicle id="89" depart="75.05">
        <route edges="E0 E3 E4"/>
    </vehicle>
    <vehicle id="5" depart="75.4">
        <route edges="E0 E3 E4"/>
    </vehicle>
    <vehicle id="59" depart="75.41">
        <route edges="E0 E3 E4"/>
    </vehicle>
    <vehicle id="39" depart="75.99">
        <route edges="E2 E4"/>
    </vehicle>
    <vehicle id="65" depart="77.42">
        <route edges="E2 E4"/>
    </vehicle>
    <vehicle id="44" depart="77.66">
        <route edges="E2 E4"/>
    </vehicle>
    <vehicle id="2" depart="78.08">
        <route edges="E0 E3 E4"/>
    </vehicle>
    <vehicle id="43" depart="79.6">
        <route edges="E2 E4"/>
    </vehicle>
    <vehicle id="90" depart="80.3">
        <route edges="E2 E4"/>
    </vehicle>
    <vehicle id="68" depart="80.31">
        <route edges="E2 E4"/>
    </vehicle>
    <vehicle id="70" depart="80.59">
        <route edges="E0 E3 E4"/>
    </vehicle>
    <vehicle id="17" depart="80.7">
        <route edges="E0 E3 E4"/>
    </vehicle>
    <vehicle id="94" depart="82.82">
        <route edges="E2 E4"/>
    </vehicle>
    <vehicle id="99" depart="83.19">
        <route edges="E0 E3 E4"/>
    </vehicle>
    <vehicle id="49" depart="83.45">
        <route edges="E0 E3 E4"/>
    </vehicle>
    <vehicle id="69" depart="84.19">
        <route edges="E2 E4"/>
    </vehicle>
    <vehicle id="29" depart="84.48">
        <route edges="E0 E3 E4"/>
    </vehicle>
    <vehicle id="1" depart="87.36">
        <route edges="E0 E3 E4"/>
    </vehicle>
    <vehicle id="30" depart="89.77">
        <route edges="E2 E4"/>
    </vehicle>
    <vehicle id="71" depart="90.62">
        <route edges="E0 E3 E4"/>
    </vehicle>
    <vehicle id="42" depart="91.76">
        <route edges="E2 E4"/>
    </vehicle>
    <vehicle id="82" depart="91.83">
        <route edges="E0 E3 E4"/>
    </vehicle>
    <vehicle id="14" depart="91.88">
        <route edges="E2 E4"/>
    </vehicle>
    <vehicle id="50" depart="93.45">
        <route edges="E0 E3 E4"/>
    </vehicle>
    <vehicle id="48" depart="94.39">
        <route edges="E0 E3 E4"/>
    </vehicle>
    <vehicle id="8" depart="99.53">
        <route edges="E2 E4"/>
    </vehicle>
    <vehicle id="61" depart="99.77">
        <route edges="E2 E4"/>
    </vehicle>
</routes>
